[TITLE]
Converted from Epanet to Staci, case name: balf.spr


[JUNCTIONS]
;ID              	Elev        	Demand      	Pattern         
 node_0          	135.8504    	0.711592    	                	;
 node_1          	130.5732    	0.000000    	                	;
 node_2          	134.2384    	0.000000    	                	;
 node_3          	127.2555    	0.000000    	                	;
 node_4          	158.5119    	0.005833    	                	;
 node_5          	157.0425    	0.003750    	                	;
 node_6          	158.3909    	0.001250    	                	;
 node_7          	125.5076    	0.009167    	                	;
 node_8          	142.8842    	0.004583    	                	;
 node_9          	136.7920    	0.002500    	                	;
 node_10         	124.9181    	0.010383    	                	;
 node_11         	131.3992    	0.007917    	                	;
 node_12         	125.5907    	0.002917    	                	;
 node_13         	125.7866    	0.010000    	                	;
 node_14         	130.7030    	0.001667    	                	;
 node_15         	129.3368    	0.000000    	                	;
 node_16         	130.9633    	0.001667    	                	;
 node_17         	132.2736    	0.002917    	                	;
 node_18         	128.0082    	0.005000    	                	;
 node_19         	130.8661    	0.012083    	                	;
 node_20         	131.0304    	0.003333    	                	;
 node_21         	131.0115    	0.008333    	                	;
 node_22         	130.3658    	0.001250    	                	;
 node_23         	131.4535    	0.005000    	                	;
 node_24         	119.4923    	0.004167    	                	;
 node_25         	128.7539    	0.000417    	                	;
 node_26         	129.2391    	0.010417    	                	;
 node_27         	121.0536    	0.010833    	                	;
 node_28         	119.6458    	0.003750    	                	;
 node_29         	133.3031    	0.002083    	                	;
 node_30         	130.9540    	0.008333    	                	;
 node_31         	129.3498    	0.006250    	                	;
 node_32         	130.9279    	0.001250    	                	;
 node_33         	128.8144    	0.002500    	                	;
 node_34         	130.2880    	0.005833    	                	;
 node_35         	154.1977    	0.004167    	                	;
 node_36         	121.6021    	0.005417    	                	;
 node_37         	120.2589    	0.004583    	                	;
 node_38         	129.6563    	0.008750    	                	;
 node_39         	136.7856    	0.003750    	                	;
 node_40         	155.5813    	0.000000    	                	;
 node_41         	139.6338    	0.007083    	                	;
 node_42         	130.6901    	0.000000    	                	;
 node_43         	146.1049    	0.000000    	                	;
 node_44         	129.3254    	0.005417    	                	;
 node_45         	145.3981    	0.002917    	                	;
 node_46         	125.3614    	0.004583    	                	;
 node_47         	137.3802    	0.000000    	                	;
 node_48         	127.9851    	0.005000    	                	;
 node_49         	125.1684    	0.000417    	                	;
 node_50         	128.3321    	0.013987    	                	;
 node_51         	129.0877    	0.024871    	                	;
 node_52         	127.5737    	0.018554    	                	;
 node_53         	130.8376    	0.000833    	                	;
 node_54         	129.8558    	0.001458    	                	;
 node_55         	130.1031    	0.005833    	                	;
 node_56         	138.1098    	0.005833    	                	;
 node_57         	134.8620    	0.007596    	                	;
 node_58         	135.5617    	0.007500    	                	;
 node_59         	137.8443    	0.003333    	                	;
 node_60         	141.4035    	0.000000    	                	;
 node_61         	130.7649    	0.001667    	                	;
 node_62         	130.9115    	0.002917    	                	;
 node_63         	130.3749    	0.000371    	                	;
 node_64         	130.2894    	0.006667    	                	;
 node_65         	131.9081    	0.005417    	                	;
 node_66         	127.5257    	0.000000    	                	;
 node_67         	119.4004    	0.004583    	                	;
 node_68         	120.0464    	0.007500    	                	;
 node_69         	125.9096    	0.010121    	                	;
 node_70         	122.1641    	0.002917    	                	;
 node_71         	119.8810    	0.004583    	                	;
 node_72         	128.4859    	0.003333    	                	;
 node_73         	129.2267    	0.000279    	                	;
 node_74         	129.1288    	0.026296    	                	;
 node_75         	128.8561    	0.002500    	                	;
 node_76         	128.8345    	0.000000    	                	;
 node_77         	131.2771    	0.003750    	                	;
 node_78         	130.1004    	0.006250    	                	;
 node_79         	127.1336    	0.000000    	                	;
 node_80         	127.4652    	0.000833    	                	;
 node_81         	147.6721    	0.005417    	                	;
 node_82         	129.4943    	0.005417    	                	;
 node_83         	139.0250    	0.000000    	                	;
 node_84         	146.2080    	0.000000    	                	;
 node_85         	146.1609    	0.000000    	                	;
 node_86         	131.8418    	0.000000    	                	;
 node_87         	148.9668    	0.000000    	                	;
 node_88         	129.2756    	0.000000    	                	;
 node_89         	129.1536    	0.004583    	                	;
 node_90         	129.1365    	0.001042    	                	;
 node_91         	158.2721    	0.003333    	                	;
 node_92         	159.3082    	0.001250    	                	;
 node_93         	124.9370    	0.011250    	                	;
 node_94         	143.4667    	0.000417    	                	;
 node_95         	127.6163    	0.005000    	                	;
 node_96         	132.8208    	0.013333    	                	;
 node_97         	127.8167    	0.006913    	                	;
 node_98         	120.3104    	0.000000    	                	;
 node_99         	126.6758    	0.000208    	                	;
 node_100        	126.8690    	0.001250    	                	;
 node_101        	130.9634    	0.006667    	                	;
 node_102        	130.5554    	0.002917    	                	;
 node_103        	130.1170    	0.006250    	                	;
 node_104        	140.2999    	0.001250    	                	;
 node_105        	137.1688    	0.002500    	                	;
 node_106        	139.5050    	0.002500    	                	;
 node_107        	131.6176    	0.004583    	                	;
 node_108        	129.9302    	0.000625    	                	;
 node_109        	130.2292    	0.004583    	                	;
 node_110        	130.4392    	0.002083    	                	;
 node_111        	132.1388    	0.006667    	                	;
 node_112        	127.0974    	0.000000    	                	;
 node_113        	119.6370    	0.000000    	                	;
 node_114        	119.9078    	0.001667    	                	;
 node_115        	129.1953    	0.011987    	                	;
 node_116        	119.7028    	0.004167    	                	;
 node_117        	126.9157    	0.004167    	                	;
 node_118        	149.0771    	0.006250    	                	;
 node_119        	135.1541    	0.000000    	                	;
 node_120        	147.4391    	0.009096    	                	;
 node_121        	130.6377    	0.003750    	                	;
 node_122        	129.9491    	0.002083    	                	;
 node_123        	129.7868    	0.008750    	                	;
 node_124        	129.2802    	0.001667    	                	;
 node_125        	127.3711    	0.005417    	                	;
 node_126        	126.4650    	0.002500    	                	;
 node_127        	144.3034    	0.000000    	                	;
 node_128        	175.8647    	0.000000    	                	;
 node_129        	142.1717    	0.000000    	                	;
 node_130        	140.8190    	0.000000    	                	;
 node_131        	126.9228    	0.007083    	                	;
 node_132        	148.6854    	0.005000    	                	;
 node_133        	141.6163    	0.000000    	                	;
 node_134        	119.4265    	0.000000    	                	;
 node_135        	138.5666    	0.000000    	                	;
 node_136        	129.1801    	0.002500    	                	;
 node_137        	124.9073    	0.003333    	                	;
 node_138        	125.4769    	0.006667    	                	;
 node_139        	125.0144    	0.000417    	                	;
 node_140        	125.0135    	0.007083    	                	;
 node_141        	136.8001    	0.007500    	                	;
 node_142        	137.6067    	0.000417    	                	;
 node_143        	126.0540    	0.000417    	                	;
 node_144        	127.3091    	0.001667    	                	;
 node_145        	128.0743    	0.002917    	                	;
 node_146        	131.5649    	0.002500    	                	;
 node_147        	131.9358    	0.000000    	                	;
 node_148        	130.9296    	0.014167    	                	;
 node_149        	130.8211    	0.002917    	                	;
 node_150        	131.1784    	0.006667    	                	;
 node_151        	130.3593    	0.000833    	                	;
 node_152        	136.4456    	0.007917    	                	;
 node_153        	139.3002    	0.001667    	                	;
 node_154        	139.8388    	0.001250    	                	;
 node_155        	140.5463    	0.015833    	                	;
 node_156        	128.8797    	0.000000    	                	;
 node_157        	126.1350    	0.005808    	                	;
 node_158        	126.8429    	0.003333    	                	;
 node_159        	129.2469    	0.001667    	                	;
 node_160        	128.8828    	0.004167    	                	;
 node_161        	120.1457    	0.004167    	                	;
 node_162        	120.2768    	0.010000    	                	;
 node_163        	119.5803    	0.000000    	                	;
 node_164        	126.2467    	0.006642    	                	;
 node_165        	125.7105    	0.006775    	                	;
 node_166        	134.5878    	0.018646    	                	;
 node_167        	119.5602    	0.003750    	                	;
 node_168        	126.7724    	0.002917    	                	;
 node_169        	136.2605    	0.002917    	                	;
 node_170        	135.3061    	0.006250    	                	;
 node_171        	138.4061    	0.007425    	                	;
 node_172        	145.8066    	0.000000    	                	;
 node_173        	143.9902    	0.000000    	                	;
 node_174        	139.0672    	0.009404    	                	;
 node_175        	118.9924    	0.000000    	                	;
 node_176        	131.3938    	0.002500    	                	;
 node_177        	129.5878    	0.004167    	                	;
 node_178        	153.6663    	0.009167    	                	;
 node_179        	124.9799    	0.009583    	                	;
 node_180        	132.1711    	0.006250    	                	;
 node_181        	125.6409    	0.003333    	                	;
 node_182        	127.4221    	0.003750    	                	;
 node_183        	131.5649    	0.000000    	                	;
 node_184        	141.4069    	0.000833    	                	;
 node_185        	137.6346    	0.002083    	                	;
 node_186        	140.4098    	0.005000    	                	;
 node_187        	140.6438    	0.000833    	                	;
 node_188        	130.8985    	0.000000    	                	;
 node_189        	129.8917    	0.008417    	                	;
 node_190        	130.1168    	0.001042    	                	;
 node_191        	130.2228    	0.000000    	                	;
 node_192        	132.1274    	0.003333    	                	;
 node_193        	132.4290    	0.000833    	                	;
 node_194        	125.6314    	0.002083    	                	;
 node_195        	129.1646    	0.002500    	                	;
 node_196        	129.3291    	0.003750    	                	;
 node_197        	126.9383    	0.002917    	                	;
 node_198        	129.1879    	0.005833    	                	;
 node_199        	126.6291    	0.000625    	                	;
 node_200        	127.5127    	0.002083    	                	;
 node_201        	129.4911    	0.005417    	                	;
 node_202        	126.8560    	0.000000    	                	;
 node_203        	128.9771    	0.000208    	                	;
 node_204        	131.2686    	0.007204    	                	;
 node_205        	133.9817    	0.010442    	                	;
 node_206        	143.4358    	0.003333    	                	;
 node_207        	148.3718    	0.002917    	                	;
 node_208        	143.5277    	0.000000    	                	;
 node_209        	135.7784    	0.004167    	                	;
 node_210        	145.0803    	0.018850    	                	;
 node_211        	125.0987    	0.000000    	                	;
 node_212        	129.2388    	0.001667    	                	;
 node_213        	150.2868    	0.002917    	                	;
 node_214        	140.2261    	0.003750    	                	;
 node_215        	144.4199    	0.004167    	                	;
 node_216        	153.0583    	0.002083    	                	;
 node_217        	131.6383    	0.004167    	                	;
 node_218        	126.2938    	0.004167    	                	;
 node_219        	125.7474    	0.002500    	                	;
 node_220        	136.9883    	0.070742    	                	;
 node_221        	125.1252    	0.008125    	                	;
 node_222        	137.5247    	0.002917    	                	;
 node_223        	128.9842    	0.003333    	                	;
 node_224        	130.1611    	0.005417    	                	;
 node_225        	127.1475    	0.002500    	                	;
 node_226        	127.7957    	0.002917    	                	;
 node_227        	129.0682    	0.005000    	                	;
 node_228        	130.0052    	0.000833    	                	;
 node_229        	132.4405    	0.002917    	                	;
 node_230        	130.9448    	0.002500    	                	;
 node_231        	130.6275    	0.004583    	                	;
 node_232        	137.6704    	0.012083    	                	;
 node_233        	132.1706    	0.001667    	                	;
 node_234        	126.9622    	0.008350    	                	;
 node_235        	132.1825    	0.005000    	                	;
 node_236        	131.3978    	0.002083    	                	;
 node_237        	129.5384    	0.002083    	                	;
 node_238        	120.9019    	0.003333    	                	;
 node_239        	126.7567    	0.005833    	                	;
 node_240        	119.6222    	0.002917    	                	;
 node_241        	126.1612    	0.004583    	                	;
 node_242        	140.3666    	0.008750    	                	;
 node_243        	132.7544    	0.007083    	                	;
 node_244        	130.5025    	0.000833    	                	;
 node_245        	130.1489    	0.002500    	                	;
 node_246        	122.6904    	0.002917    	                	;
 node_247        	139.4864    	0.014167    	                	;
 node_248        	144.1045    	0.006250    	                	;
 node_249        	132.7313    	0.005000    	                	;
 node_250        	146.7171    	0.000000    	                	;
 node_251        	146.1204    	0.000000    	                	;
 node_252        	138.4373    	0.011354    	                	;
 node_253        	137.2853    	0.015900    	                	;
 node_254        	134.6820    	0.256346    	                	;
 node_255        	130.3653    	0.002500    	                	;
 node_256        	158.0269    	0.006250    	                	;
 node_257        	157.2550    	0.002917    	                	;
 node_258        	125.0875    	0.006250    	                	;
 node_259        	125.8297    	0.001492    	                	;
 node_260        	138.8778    	0.000417    	                	;
 node_261        	158.6516    	0.004167    	                	;
 node_262        	129.5950    	0.006983    	                	;
 node_263        	125.0067    	0.010833    	                	;
 node_264        	125.6428    	0.003646    	                	;
 node_265        	119.4344    	0.011621    	                	;
 node_266        	129.5454    	0.019900    	                	;
 node_267        	130.0915    	0.002917    	                	;
 node_268        	130.5409    	0.000000    	                	;
 node_269        	131.6104    	0.007083    	                	;
 node_270        	133.6657    	0.009167    	                	;
 node_271        	130.6424    	0.002917    	                	;
 node_272        	130.2368    	0.002500    	                	;
 node_273        	141.4004    	0.007083    	                	;
 node_274        	138.6856    	0.002917    	                	;
 node_275        	129.7464    	0.002500    	                	;
 node_276        	130.6997    	0.007500    	                	;
 node_277        	132.5400    	0.002500    	                	;
 node_278        	130.0776    	0.013583    	                	;
 node_279        	128.1853    	0.016900    	                	;
 node_280        	127.8730    	0.000417    	                	;
 node_281        	125.5287    	0.003750    	                	;
 node_282        	126.6857    	0.002500    	                	;
 node_283        	127.7750    	0.000417    	                	;
 node_284        	131.4849    	0.018913    	                	;
 node_285        	129.2284    	0.002354    	                	;
 node_286        	126.5364    	0.000000    	                	;
 node_287        	129.1103    	0.005417    	                	;
 node_288        	132.8865    	0.006446    	                	;
 node_289        	144.4926    	0.005000    	                	;
 node_290        	130.8494    	0.005000    	                	;
 node_291        	132.7800    	0.012012    	                	;
 node_292        	151.2740    	0.004167    	                	;
 node_293        	148.7552    	0.000000    	                	;
 node_294        	127.8911    	0.000833    	                	;
 node_295        	129.4917    	0.006283    	                	;
 node_296        	130.4962    	0.000000    	                	;
 node_297        	145.6600    	0.003333    	                	;
 node_298        	146.6974    	0.006250    	                	;
 node_299        	141.0472    	0.000000    	                	;
 node_300        	140.0167    	0.000000    	                	;
 node_301        	139.5055    	0.000000    	                	;
 node_302        	159.5709    	0.002917    	                	;
 node_303        	157.4487    	0.001250    	                	;
 node_304        	134.9138    	0.006667    	                	;
 node_305        	137.8361    	0.005000    	                	;
 node_306        	144.1843    	0.006667    	                	;
 node_307        	129.0336    	0.002917    	                	;
 node_308        	144.5299    	0.004583    	                	;
 node_309        	156.8245    	0.002917    	                	;
 node_310        	125.8744    	0.003750    	                	;
 node_311        	125.5071    	0.005417    	                	;
 node_312        	126.0443    	0.003750    	                	;
 node_313        	126.2898    	0.005987    	                	;
 node_314        	142.0336    	0.017500    	                	;
 node_315        	128.8143    	0.002500    	                	;
 node_316        	130.7400    	0.003333    	                	;
 node_317        	131.2277    	0.002500    	                	;
 node_318        	131.6007    	0.001667    	                	;
 node_319        	129.7849    	0.002917    	                	;
 node_320        	131.4258    	0.003333    	                	;
 node_321        	136.4653    	0.000833    	                	;
 node_322        	127.4373    	0.005000    	                	;
 node_323        	126.3322    	0.005833    	                	;
 node_324        	129.0589    	0.001250    	                	;
 node_325        	125.8214    	0.000833    	                	;
 node_326        	128.4764    	0.004167    	                	;
 node_327        	129.2477    	0.005000    	                	;
 node_328        	129.5264    	0.000625    	                	;
 node_329        	120.0806    	0.002917    	                	;
 node_330        	125.8645    	0.002917    	                	;
 node_331        	128.5172    	0.001667    	                	;
 node_332        	128.9545    	0.004583    	                	;
 node_333        	136.1487    	0.000000    	                	;
 node_334        	133.3172    	0.003333    	                	;
 node_335        	131.3668    	0.000000    	                	;
 node_336        	126.5593    	0.000417    	                	;
 node_337        	119.7227    	0.004167    	                	;
 node_338        	119.6969    	0.002500    	                	;
 node_339        	130.2338    	0.000000    	                	;
 node_340        	127.6758    	0.000000    	                	;
 node_341        	132.2963    	0.000000    	                	;
 node_342        	154.1219    	0.000000    	                	;
 node_343        	132.2656    	0.000000    	                	;
 node_344        	132.2242    	0.000000    	                	;
 node_345        	125.4896    	0.000000    	                	;
 node_346        	128.6104    	0.000000    	                	;
 node_347        	128.5874    	0.000000    	                	;
 node_348        	127.7467    	0.000000    	                	;
 node_349        	127.4081    	0.000000    	                	;
 node_350        	127.6859    	0.000000    	                	;
 node_352        	129.2687    	0.000000    	                	;
 node_353        	122.6899    	0.000000    	                	;
 node_354        	145.0482    	0.000000    	                	;
 node_355        	132.2924    	0.000000    	                	;
 node_356        	132.2511    	0.000000    	                	;
 node_357        	128.7123    	0.000000    	                	;
 node_358        	132.3001    	0.000000    	                	;
 node_359        	132.2588    	0.000000    	                	;
 node_360        	141.5945    	0.000000    	                	;
 node_361        	126.9480    	0.000000    	                	;
 node_362        	128.7142    	0.000000    	                	;
 node_363        	128.6912    	0.000000    	                	;
 node_364        	175.1373    	0.000000    	                	;
 node_365        	129.3193    	0.000000    	                	;
 node_366        	129.1880    	0.000000    	                	;
 node_367        	133.1336    	0.000000    	                	;
 node_368        	132.8118    	0.000000    	                	;
 node_369        	133.1330    	0.000000    	                	;
 node_370        	127.6765    	0.000000    	                	;
 node_371        	127.4471    	0.000000    	                	;
 node_372        	154.0625    	0.000000    	                	;
 node_373        	154.0625    	0.000000    	                	;
 node_374        	127.0803    	0.000000    	                	;
 node_375        	135.8611    	0.000000    	                	;
 node_376        	135.7618    	0.000000    	                	;
 node_377        	126.9646    	0.000000    	                	;
 node_378        	126.7886    	0.000000    	                	;

[RESERVOIRS]
;ID              	Head        	Pattern         

[TANKS]
;ID             	Elevation   	InitLevel   	MinLevel    	MaxLevel    	Diameter    	MinVol      	VolCurve
 pool_0          	173.3500    	2.9200      	0.0000      	1000.0000   	10.3962     	0.0000      	                	

[PIPES]
;ID             	Node1           	Node2           	Length      	Diameter    	Roughness   	MinorLoss   	Status
 pipe_0          	node_354        	node_210        	1.0000      	90.0000     	-0.0200     	0.0000      	Open  ;
 pipe_1          	node_299        	node_130        	4.4656      	110.0000    	-0.0200     	0.0000      	Open  ;
 pipe_2          	node_184        	node_60         	10.7622     	125.0000    	-0.0200     	0.0000      	Open  ;
 pipe_3          	node_60         	node_273        	9.7505      	125.0000    	-0.0200     	0.0000      	Open  ;
 pipe_4          	node_273        	node_187        	20.4399     	125.0000    	-0.0200     	0.0000      	Open  ;
 pipe_5          	node_186        	node_104        	1.7800      	125.0000    	-0.0200     	0.0000      	Open  ;
 pipe_6          	node_187        	node_155        	2.8396      	125.0000    	-0.0200     	0.0000      	Open  ;
 pipe_7          	node_155        	node_186        	2.2108      	125.0000    	-0.0200     	0.0000      	Open  ;
 pipe_8          	node_104        	node_154        	15.9084     	125.0000    	-0.0200     	0.0000      	Open  ;
 pipe_9          	node_154        	node_106        	12.9663     	125.0000    	-0.0200     	0.0000      	Open  ;
 pipe_10         	node_106        	node_153        	2.3067      	125.0000    	-0.0200     	0.0000      	Open  ;
 pipe_11         	node_153        	node_274        	10.3254     	125.0000    	-0.0200     	0.0000      	Open  ;
 pipe_12         	node_274        	node_56         	13.3697     	125.0000    	-0.0200     	0.0000      	Open  ;
 pipe_13         	node_56         	node_59         	7.7168      	125.0000    	-0.0200     	0.0000      	Open  ;
 pipe_14         	node_59         	node_232        	13.8231     	125.0000    	-0.0200     	0.0000      	Open  ;
 pipe_15         	node_232        	node_185        	2.7962      	125.0000    	-0.0200     	0.0000      	Open  ;
 pipe_16         	node_185        	node_105        	4.9857      	125.0000    	-0.0200     	0.0000      	Open  ;
 pipe_17         	node_105        	node_321        	11.3978     	125.0000    	-0.0200     	0.0000      	Open  ;
 pipe_18         	node_321        	node_152        	0.7943      	125.0000    	-0.0200     	0.0000      	Open  ;
 pipe_19         	node_320        	node_350        	31.3075     	125.0000    	-0.0200     	0.0000      	Open  ;
 pipe_20         	node_129        	node_299        	22.0087     	110.0000    	-0.0200     	0.0000      	Open  ;
 pipe_21         	node_173        	node_208        	7.3478      	110.0000    	-0.0200     	0.0000      	Open  ;
 pipe_22         	node_250        	node_298        	0.3487      	110.0000    	-0.0200     	0.0000      	Open  ;
 pipe_23         	node_85         	node_84         	18.9966     	110.0000    	-0.0200     	0.0000      	Open  ;
 pipe_24         	node_84         	node_251        	3.8898      	110.0000    	-0.0200     	0.0000      	Open  ;
 pipe_25         	node_251        	node_172        	17.5393     	110.0000    	-0.0200     	0.0000      	Open  ;
 pipe_26         	node_172        	node_297        	4.0918      	110.0000    	-0.0200     	0.0000      	Open  ;
 pipe_27         	node_208        	node_206        	1.4614      	110.0000    	-0.0200     	0.0000      	Open  ;
 pipe_28         	node_206        	node_129        	20.0870     	110.0000    	-0.0200     	0.0000      	Open  ;
 pipe_29         	node_300        	node_41         	31.0988     	110.0000    	-0.0200     	0.0000      	Open  ;
 pipe_30         	node_174        	node_83         	1.2449      	110.0000    	-0.0200     	0.0000      	Open  ;
 pipe_31         	node_83         	node_252        	19.3292     	110.0000    	-0.0200     	0.0000      	Open  ;
 pipe_32         	node_252        	node_171        	6.2971      	110.0000    	-0.0200     	0.0000      	Open  ;
 pipe_33         	node_171        	node_253        	16.1065     	110.0000    	-0.0200     	0.0000      	Open  ;
 pipe_34         	node_209        	node_170        	7.2744      	110.0000    	-0.0200     	0.0000      	Open  ;
 pipe_35         	node_253        	node_169        	13.3173     	110.0000    	-0.0200     	0.0000      	Open  ;
 pipe_36         	node_169        	node_209        	9.7790      	110.0000    	-0.0200     	0.0000      	Open  ;
 pipe_37         	node_170        	node_205        	22.5407     	110.0000    	-0.0200     	0.0000      	Open  ;
 pipe_38         	node_205        	node_249        	23.3685     	110.0000    	-0.0200     	0.0000      	Open  ;
 pipe_39         	node_134        	node_265        	0.6325      	80.0000     	-0.0200     	0.0000      	Open  ;
 pipe_40         	node_295        	node_201        	1.1499      	125.0000    	-0.0200     	0.0000      	Open  ;
 pipe_41         	node_201        	node_82         	3.3347      	125.0000    	-0.0200     	0.0000      	Open  ;
 pipe_42         	node_31         	node_295        	15.8568     	125.0000    	-0.0200     	0.0000      	Open  ;
 pipe_43         	node_74         	node_31         	23.5023     	125.0000    	-0.0200     	0.0000      	Open  ;
 pipe_44         	node_360        	node_133        	11.1423     	125.0000    	-0.0200     	0.0000      	Open  ;
 pipe_45         	node_133        	node_184        	3.4482      	125.0000    	-0.0200     	0.0000      	Open  ;
 pipe_46         	node_87         	node_118        	1.6261      	110.0000    	-0.0200     	0.0000      	Open  ;
 pipe_47         	node_249        	node_42         	46.8226     	110.0000    	-0.0200     	0.0000      	Open  ;
 pipe_48         	node_42         	node_296        	3.0572      	110.0000    	-0.0200     	0.0000      	Open  ;
 pipe_49         	node_248        	node_354        	26.8560     	80.0000     	-0.0200     	0.0000      	Open  ;