[TITLE]
Converted from Epanet to Staci, case name: becsidomb.spr


[JUNCTIONS]
;ID              	Elev        	Demand      	Pattern         
 node_0          	216.3230    	0.005000    	                	;
 node_1          	216.0005    	0.000000    	                	;
 node_2          	212.1478    	0.000000    	                	;
 node_3          	217.3279    	0.000000    	                	;
 node_4          	217.5913    	0.000000    	                	;
 node_5          	220.0575    	0.000000    	                	;
 node_6          	215.3963    	0.001250    	                	;
 node_7          	220.6309    	0.000000    	                	;
 node_8          	222.1436    	0.003750    	                	;
 node_9          	222.0939    	0.000000    	                	;
 node_10         	223.0279    	0.003333    	                	;
 node_11         	220.1153    	0.000000    	                	;
 node_12         	218.7967    	0.000000    	                	;
 node_13         	219.3639    	0.032500    	                	;
 node_14         	219.4095    	0.000000    	                	;
 node_15         	219.3227    	0.000000    	                	;
 node_16         	223.4192    	0.000000    	                	;
 node_17         	219.8533    	0.000000    	                	;
 node_18         	220.7792    	0.000000    	                	;
 node_19         	212.1076    	0.001250    	                	;
 node_20         	211.8371    	0.005417    	                	;
 node_21         	220.2127    	0.000000    	                	;
 node_22         	223.1675    	0.000000    	                	;
 node_23         	220.0378    	0.000000    	                	;
 node_24         	221.6230    	0.000000    	                	;
 node_25         	217.7138    	0.000000    	                	;
 node_26         	222.3275    	0.000000    	                	;
 node_27         	220.9356    	0.000000    	                	;
 node_28         	220.5281    	0.000000    	                	;
 node_29         	213.1843    	0.000000    	                	;
 node_30         	220.4420    	0.048333    	                	;
 node_31         	219.5738    	0.000000    	                	;
 node_32         	212.1018    	0.001250    	                	;
 node_33         	219.3713    	0.000000    	                	;
 node_34         	225.3686    	0.000000    	                	;
 node_35         	218.5703    	0.000000    	                	;
 node_36         	221.0226    	0.000000    	                	;
 node_37         	219.1732    	0.000000    	                	;
 node_38         	221.5088    	0.000000    	                	;
 node_39         	228.0893    	0.103750    	                	;
 node_40         	211.9053    	0.070833    	                	;
 node_41         	212.7424    	0.000000    	                	;
 node_42         	215.6609    	0.000000    	                	;
 node_43         	217.6278    	0.000000    	                	;
 node_44         	213.6370    	0.002917    	                	;
 node_45         	220.7805    	0.004167    	                	;
 node_46         	225.4834    	0.036667    	                	;
 node_47         	220.8044    	0.000000    	                	;
 node_48         	217.0669    	0.000000    	                	;
 node_49         	221.5621    	0.000000    	                	;
 node_50         	217.2702    	0.000000    	                	;
 node_51         	214.2800    	0.000000    	                	;
 node_52         	217.8568    	0.000000    	                	;
 node_53         	220.9576    	0.000000    	                	;
 node_54         	219.7531    	0.000000    	                	;
 node_55         	229.3413    	0.000000    	                	;
 node_56         	216.2400    	0.000000    	                	;
 node_57         	216.1141    	0.001250    	                	;
 node_58         	220.7615    	0.000000    	                	;
 node_59         	214.7919    	0.006667    	                	;
 node_60         	225.3683    	0.086250    	                	;
 node_61         	217.5608    	0.000000    	                	;
 node_62         	222.8984    	0.000000    	                	;
 node_63         	231.9413    	0.000000    	                	;
 node_64         	218.2959    	0.000000    	                	;
 node_65         	220.0684    	0.000000    	                	;
 node_66         	220.4157    	0.000000    	                	;
 node_67         	222.4291    	0.000000    	                	;
 node_68         	219.7081    	0.009167    	                	;
 node_69         	223.3359    	0.000000    	                	;
 node_70         	220.7718    	0.000000    	                	;
 node_71         	220.4226    	0.000000    	                	;
 node_72         	211.8041    	0.005000    	                	;
 node_73         	216.2342    	0.040000    	                	;
 node_74         	220.8887    	0.000000    	                	;
 node_75         	221.2649    	0.000000    	                	;
 node_76         	212.0223    	0.000000    	                	;
 node_77         	219.3686    	0.000000    	                	;
 node_78         	219.1882    	0.000000    	                	;
 node_79         	220.0281    	0.000000    	                	;
 node_80         	222.8715    	0.000000    	                	;
 node_81         	232.4492    	0.002500    	                	;
 node_82         	220.2804    	0.000000    	                	;
 node_83         	218.4955    	0.000000    	                	;
 node_84         	215.5059    	0.000000    	                	;
 node_85         	219.2956    	0.000833    	                	;
 node_86         	219.8774    	0.000000    	                	;
 node_87         	220.7741    	0.000000    	                	;
 node_88         	219.2498    	0.000000    	                	;
 node_89         	219.8822    	0.000000    	                	;
 node_90         	221.4546    	0.000000    	                	;
 node_91         	211.8542    	0.006667    	                	;
 node_92         	221.2436    	0.000000    	                	;
 node_93         	227.9918    	0.000000    	                	;
 node_94         	216.8501    	0.000000    	                	;
 node_95         	214.7732    	0.000000    	                	;
 node_96         	219.0591    	0.108333    	                	;
 node_97         	222.3583    	0.000000    	                	;
 node_98         	220.3897    	0.000000    	                	;
 node_99         	219.4501    	0.000000    	                	;
 node_100        	220.8915    	0.000000    	                	;
 node_101        	212.5270    	0.002500    	                	;
 node_102        	220.4352    	0.000000    	                	;
 node_103        	232.5298    	0.005000    	                	;
 node_104        	219.3265    	0.000000    	                	;
 node_105        	222.4755    	0.000000    	                	;
 node_106        	219.8413    	0.000000    	                	;
 node_107        	213.2266    	0.000000    	                	;
 node_108        	220.5594    	0.000000    	                	;
 node_109        	212.5186    	0.110833    	                	;
 node_110        	215.1408    	0.001250    	                	;
 node_111        	223.1703    	0.000000    	                	;
 node_112        	222.7190    	0.000000    	                	;
 node_113        	220.7417    	0.000000    	                	;
 node_114        	232.2146    	0.005417    	                	;
 node_115        	220.3266    	0.000000    	                	;
 node_116        	218.3068    	0.000000    	                	;
 node_117        	220.9921    	0.000000    	                	;
 node_118        	216.0297    	0.000000    	                	;
 node_119        	221.8146    	0.003750    	                	;
 node_120        	216.5226    	0.000000    	                	;
 node_121        	216.6684    	0.000000    	                	;
 node_122        	215.8122    	0.002500    	                	;
 node_123        	219.3152    	0.000000    	                	;
 node_124        	221.6438    	0.000000    	                	;
 node_125        	221.1167    	0.001250    	                	;
 node_126        	220.3536    	0.000000    	                	;
 node_127        	220.0403    	0.000000    	                	;
 node_128        	216.3251    	0.000000    	                	;
 node_129        	217.4131    	0.000000    	                	;
 node_130        	221.1073    	0.000000    	                	;
 node_131        	220.7841    	0.000000    	                	;
 node_132        	223.1583    	0.000000    	                	;
 node_133        	221.8656    	0.000000    	                	;
 node_134        	214.1556    	0.015417    	                	;
 node_135        	220.7358    	0.005000    	                	;
 node_136        	227.9967    	0.000000    	                	;
 node_137        	220.6649    	0.000000    	                	;
 node_138        	219.5927    	0.007917    	                	;
 node_139        	230.7002    	0.005833    	                	;
 node_140        	216.5233    	0.000000    	                	;
 node_141        	220.0988    	0.000000    	                	;
 node_142        	212.6430    	0.001250    	                	;
 node_143        	219.2954    	0.000000    	                	;
 node_144        	222.2521    	0.000000    	                	;
 node_145        	220.6890    	0.000000    	                	;
 node_146        	220.3920    	0.000833    	                	;
 node_147        	215.6892    	0.011667    	                	;
 node_148        	222.8706    	0.000000    	                	;
 node_149        	220.7802    	0.000000    	                	;
 node_150        	216.1784    	0.000000    	                	;
 node_151        	219.2187    	0.000000    	                	;
 node_152        	222.7408    	0.000000    	                	;
 node_153        	218.4575    	0.000000    	                	;
 node_154        	220.7776    	0.000000    	                	;
 node_155        	219.6894    	0.000000    	                	;
 node_156        	220.8106    	0.000000    	                	;
 node_157        	216.0171    	0.001667    	                	;
 node_158        	213.9387    	0.045000    	                	;
 node_159        	219.8991    	0.000000    	                	;
 node_160        	221.1658    	0.000000    	                	;
 node_161        	222.4845    	0.000000    	                	;
 node_162        	218.0995    	0.000000    	                	;
 node_163        	216.9783    	0.000000    	                	;
 node_164        	214.7845    	0.000000    	                	;
 node_165        	212.9349    	0.000000    	                	;
 node_166        	217.6602    	0.000000    	                	;
 node_167        	219.9862    	0.000000    	                	;
 node_168        	221.7055    	0.000000    	                	;
 node_169        	219.8777    	0.004583    	                	;
 node_170        	222.4916    	0.000000    	                	;
 node_171        	212.5666    	0.000000    	                	;
 node_172        	215.6454    	0.025833    	                	;
 node_173        	216.2498    	0.000000    	                	;
 node_174        	220.0972    	0.000000    	                	;
 node_175        	220.7921    	0.002917    	                	;
 node_176        	219.3731    	0.000000    	                	;
 node_177        	221.6661    	0.000000    	                	;
 node_178        	219.8511    	0.000000    	                	;
 node_179        	221.6584    	0.000000    	                	;
 node_180        	212.0979    	0.000417    	                	;
 node_181        	232.7770    	0.007500    	                	;
 node_182        	217.5559    	0.000000    	                	;
 node_183        	217.9285    	0.000000    	                	;
 node_184        	217.9145    	0.000000    	                	;
 node_185        	220.0325    	0.000000    	                	;
 node_186        	220.4413    	0.000000    	                	;
 node_187        	219.3323    	0.001667    	                	;
 node_188        	219.2404    	0.000000    	                	;
 node_189        	221.2716    	0.000000    	                	;
 node_190        	216.2321    	0.000000    	                	;
 node_191        	219.7527    	0.000000    	                	;
 node_192        	221.4629    	0.010833    	                	;
 node_193        	218.0521    	0.000000    	                	;
 node_194        	228.3498    	0.000000    	                	;
 node_195        	231.8869    	0.015833    	                	;
 node_196        	215.3329    	0.007500    	                	;
 node_197        	224.6347    	0.000000    	                	;
 node_198        	222.2143    	0.000000    	                	;
 node_199        	216.4840    	0.000000    	                	;
 node_200        	217.2702    	0.000000    	                	;
 node_201        	222.3465    	0.000417    	                	;
 node_202        	222.0873    	0.000000    	                	;
 node_203        	220.7438    	0.005000    	                	;
 node_204        	211.8489    	0.000000    	                	;
 node_205        	220.7534    	0.016250    	                	;
 node_206        	217.5855    	0.227500    	                	;
 node_207        	222.9825    	0.000000    	                	;
 node_208        	221.8795    	0.000000    	                	;
 node_209        	220.3017    	0.000000    	                	;
 node_210        	225.2414    	0.000000    	                	;
 node_211        	215.9954    	0.000000    	                	;
 node_212        	219.3942    	0.000000    	                	;
 node_213        	222.5361    	0.442083    	                	;
 node_214        	218.9197    	0.000000    	                	;
 node_215        	221.5287    	0.000000    	                	;
 node_216        	219.9822    	0.000000    	                	;
 node_217        	222.9301    	0.000000    	                	;
 node_218        	221.5094    	0.000000    	                	;
 node_219        	215.5165    	0.000000    	                	;
 node_220        	221.5156    	0.000000    	                	;
 node_221        	221.1576    	0.000000    	                	;
 node_222        	220.8837    	0.008333    	                	;
 node_223        	219.7901    	0.018750    	                	;
 node_224        	222.0495    	0.000000    	                	;
 node_225        	222.7160    	0.000000    	                	;
 node_226        	222.3504    	0.000000    	                	;
 node_227        	221.2131    	0.006250    	                	;
 node_228        	220.7833    	0.000000    	                	;
 node_229        	217.5163    	0.000000    	                	;
 node_230        	214.2068    	0.103750    	                	;
 node_231        	219.1874    	0.000000    	                	;
 node_232        	211.8191    	0.005833    	                	;
 node_233        	211.7812    	0.003750    	                	;
 node_234        	222.3145    	0.000000    	                	;
 node_235        	219.6141    	0.000000    	                	;
 node_236        	219.9259    	0.000000    	                	;
 node_237        	222.1962    	0.000000    	                	;
 node_238        	220.6560    	0.000000    	                	;
 node_239        	221.3033    	0.000000    	                	;
 node_240        	218.8803    	0.000000    	                	;
 node_241        	218.8134    	0.000000    	                	;
 node_242        	227.6567    	0.000000    	                	;
 node_243        	213.8049    	0.000000    	                	;
 node_244        	212.6828    	0.001667    	                	;
 node_245        	213.1633    	0.185417    	                	;
 node_246        	220.0639    	0.000000    	                	;
 node_247        	218.6323    	0.000000    	                	;
 node_248        	217.2428    	0.000000    	                	;
 node_249        	212.8846    	0.000000    	                	;
 node_250        	213.1382    	0.000000    	                	;
 node_251        	216.8503    	0.000000    	                	;
 node_252        	220.8581    	0.000000    	                	;
 node_253        	220.6396    	0.000000    	                	;
 node_254        	219.9921    	0.003333    	                	;
 node_255        	220.9602    	0.000000    	                	;
 node_256        	220.5068    	0.047083    	                	;
 node_257        	216.6884    	0.000000    	                	;
 node_258        	220.3682    	0.001250    	                	;
 node_259        	220.9068    	0.000000    	                	;
 node_260        	230.4480    	0.000000    	                	;
 node_261        	225.1682    	0.005833    	                	;
 node_262        	217.1684    	0.005417    	                	;
 node_263        	215.2437    	0.000000    	                	;
 node_264        	221.8047    	0.000000    	                	;
 node_265        	211.9906    	0.006250    	                	;
 node_266        	220.1496    	0.000000    	                	;
 node_267        	233.3929    	0.002917    	                	;
 node_268        	220.7884    	0.005000    	                	;
 node_269        	220.4012    	0.000000    	                	;
 node_270        	227.6754    	0.000000    	                	;
 node_271        	219.9163    	0.000000    	                	;
 node_272        	219.9798    	0.000000    	                	;
 node_273        	219.0728    	0.006250    	                	;
 node_274        	211.8226    	0.001667    	                	;
 node_275        	212.3106    	0.005833    	                	;
 node_276        	219.3458    	0.000000    	                	;
 node_277        	213.4291    	0.000417    	                	;
 node_278        	212.5750    	0.007083    	                	;
 node_279        	217.3651    	0.084167    	                	;
 node_280        	217.2827    	0.000000    	                	;
 node_281        	220.8271    	0.000000    	                	;
 node_282        	221.5492    	0.000000    	                	;
 node_283        	213.0401    	0.002500    	                	;
 node_284        	219.2611    	0.000000    	                	;
 node_285        	228.5311    	0.000000    	                	;
 node_286        	217.6655    	0.000000    	                	;
 node_287        	218.9011    	0.000000    	                	;
 node_288        	223.2425    	0.000000    	                	;
 node_289        	220.2212    	0.000000    	                	;
 node_290        	219.7850    	0.000000    	                	;
 node_291        	218.4419    	0.017500    	                	;
 node_292        	219.6145    	0.000000    	                	;
 node_293        	213.9733    	0.002917    	                	;
 node_294        	220.4137    	0.000000    	                	;
 node_295        	218.1576    	0.067917    	                	;
 node_296        	220.7415    	0.005000    	                	;
 node_297        	218.3960    	0.001667    	                	;
 node_298        	220.1596    	0.000000    	                	;
 node_299        	220.3704    	0.005417    	                	;
 node_300        	220.4960    	0.000000    	                	;
 node_301        	219.7373    	0.000000    	                	;
 node_302        	222.5913    	0.015000    	                	;
 node_303        	219.2237    	0.000000    	                	;
 node_304        	221.3606    	0.000000    	                	;
 node_305        	213.3696    	0.000000    	                	;
 node_306        	217.3877    	0.000000    	                	;
 node_307        	220.1487    	0.000000    	                	;
 node_308        	217.4051    	0.000000    	                	;
 node_309        	219.7871    	0.000000    	                	;
 node_310        	222.0962    	0.000000    	                	;
 node_311        	223.4821    	0.000000    	                	;
 node_312        	219.2469    	0.000000    	                	;
 node_313        	220.2358    	0.000000    	                	;
 node_314        	218.3630    	0.000000    	                	;
 node_315        	218.3260    	0.000000    	                	;
 node_316        	221.5993    	0.000000    	                	;
 node_317        	228.0870    	0.000000    	                	;
 node_318        	230.6955    	0.000000    	                	;
 node_319        	219.9496    	0.000000    	                	;
 node_320        	220.3368    	0.000000    	                	;
 node_321        	222.4348    	0.000000    	                	;
 node_322        	223.1330    	0.000000    	                	;
 node_323        	217.2158    	0.000000    	                	;
 node_324        	221.2692    	0.000000    	                	;
 node_325        	218.4811    	0.000000    	                	;
 node_326        	221.5163    	0.014583    	                	;
 node_327        	221.7748    	0.000000    	                	;
 node_328        	219.6984    	0.003750    	                	;
 node_329        	220.8270    	0.000000    	                	;
 node_330        	225.9138    	0.000000    	                	;
 node_331        	213.0832    	0.001250    	                	;
 node_332        	223.0399    	0.000000    	                	;
 node_333        	220.4364    	0.000417    	                	;
 node_334        	219.1707    	0.000000    	                	;
 node_335        	223.4729    	0.001250    	                	;
 node_336        	220.7109    	0.019167    	                	;
 node_337        	220.0105    	0.000000    	                	;
 node_338        	221.9133    	0.000000    	                	;
 node_339        	220.6301    	0.000000    	                	;
 node_340        	215.3954    	0.007917    	                	;
 node_341        	233.3795    	0.000000    	                	;
 node_342        	212.4919    	0.001667    	                	;
 node_343        	220.0531    	0.000000    	                	;
 node_344        	212.0495    	0.007500    	                	;
 node_345        	219.7130    	0.000000    	                	;
 node_346        	212.9671    	0.000000    	                	;
 node_347        	217.4439    	0.000000    	                	;
 node_348        	214.2419    	0.000000    	                	;
 node_349        	224.0481    	0.000000    	                	;
 node_350        	216.4924    	0.000000    	                	;
 node_351        	222.2824    	0.000000    	                	;
 node_352        	214.3286    	0.002917    	                	;
 node_353        	219.4051    	0.002917    	                	;
 node_354        	219.8439    	0.017917    	                	;
 node_355        	220.7849    	0.000000    	                	;
 node_356        	212.1113    	0.006667    	                	;
 node_357        	218.8632    	0.000000    	                	;
 node_358        	223.4481    	0.000000    	                	;
 node_359        	220.4224    	0.000000    	                	;
 node_360        	221.7129    	0.000000    	                	;
 node_361        	223.5075    	0.000000    	                	;
 node_362        	219.6672    	0.000000    	                	;
 node_363        	220.1996    	0.406250    	                	;
 node_364        	219.9178    	0.000000    	                	;
 node_365        	220.3040    	0.000000    	                	;
 node_366        	220.9170    	0.000000    	                	;
 node_367        	218.3233    	0.000000    	                	;
 node_368        	220.6132    	0.000000    	                	;
 node_369        	221.0348    	0.000000    	                	;
 node_370        	217.6811    	0.119583    	                	;
 node_371        	213.1737    	0.000000    	                	;
 node_372        	213.3971    	0.004583    	                	;
 node_373        	215.5824    	0.017083    	                	;
 node_374        	217.7022    	0.000000    	                	;
 node_375        	222.7948    	0.000000    	                	;
 node_376        	220.1081    	0.000000    	                	;
 node_377        	221.5956    	0.000000    	                	;
 node_378        	219.2018    	0.004167    	                	;
 node_379        	214.1579    	0.005000    	                	;
 node_380        	219.4177    	0.000000    	                	;
 node_381        	220.0054    	0.000000    	                	;
 node_382        	220.5182    	0.000000    	                	;
 node_383        	219.6794    	0.032500    	                	;
 node_384        	220.0347    	0.000000    	                	;
 node_385        	223.4843    	0.000000    	                	;
 node_386        	220.7406    	0.000000    	                	;
 node_387        	220.1352    	0.009167    	                	;
 node_388        	227.9817    	0.000000    	                	;
 node_389        	220.9471    	0.000000    	                	;
 node_390        	219.3820    	0.000000    	                	;
 node_391        	219.7295    	0.000000    	                	;
 node_392        	232.3863    	0.005417    	                	;
 node_393        	211.9586    	0.000000    	                	;
 node_394        	227.9222    	0.000000    	                	;
 node_395        	215.7098    	0.055417    	                	;
 node_396        	217.0721    	0.004167    	                	;
 node_397        	212.2098    	0.002917    	                	;
 node_398        	220.5822    	0.024167    	                	;
 node_399        	215.7077    	0.000000    	                	;
 node_400        	222.4425    	0.000000    	                	;
 node_401        	221.3773    	0.000000    	                	;
 node_402        	221.6568    	0.003750    	                	;
 node_403        	223.3766    	0.000000    	                	;
 node_404        	222.2810    	0.000000    	                	;
 node_405        	219.1591    	0.000000    	                	;
 node_406        	221.9450    	0.000000    	                	;
 node_407        	219.2123    	0.000000    	                	;
 node_408        	218.2064    	0.000000    	                	;
 node_409        	218.5360    	0.000000    	                	;
 node_410        	218.9057    	0.000000    	                	;
 node_411        	220.8914    	0.000000    	                	;
 node_412        	228.4269    	0.000000    	                	;
 node_413        	218.7241    	0.000833    	                	;
 node_414        	221.4883    	0.000000    	                	;
 node_415        	220.3881    	0.002083    	                	;
 node_416        	222.4267    	0.000000    	                	;
 node_417        	221.5546    	0.003750    	                	;
 node_418        	220.3630    	0.003333    	                	;
 node_419        	221.5546    	0.000000    	                	;
 node_420        	219.2657    	0.000000    	                	;
 node_421        	215.3071    	0.000000    	                	;
 node_422        	221.5719    	0.000000    	                	;
 node_423        	217.3502    	0.000000    	                	;
 node_424        	217.2364    	0.000000    	                	;
 node_425        	212.3930    	0.000833    	                	;
 node_426        	219.2115    	0.000000    	                	;
 node_427        	229.0918    	0.000000    	                	;
 node_428        	215.0437    	0.000000    	                	;
 node_429        	223.1802    	0.000000    	                	;
 node_430        	216.1751    	0.000000    	                	;
 node_431        	223.4883    	0.000000    	                	;
 node_432        	215.3750    	0.000000    	                	;
 node_433        	221.5208    	0.000000    	                	;
 node_434        	213.2830    	0.000000    	                	;
 node_435        	219.2704    	0.000000    	                	;
 node_436        	223.7080    	0.000000    	                	;
 node_437        	217.7159    	0.000000    	                	;
 node_438        	219.3342    	0.000000    	                	;
 node_439        	219.8574    	0.000000    	                	;
 node_440        	218.3059    	0.000000    	                	;
 node_441        	216.7137    	0.000000    	                	;
 node_442        	219.2466    	0.000000    	                	;
 node_443        	219.4590    	0.067917    	                	;
 node_444        	217.6772    	0.000000    	                	;
 node_445        	215.9565    	0.005417    	                	;
 node_446        	223.2365    	0.000000    	                	;
 node_447        	221.0134    	0.007083    	                	;
 node_448        	211.9353    	0.000000    	                	;
 node_449        	213.8036    	0.000000    	                	;
 node_450        	221.4845    	0.000000    	                	;
 node_451        	219.5137    	0.000000    	                	;
 node_452        	222.9493    	0.000000    	                	;
 node_453        	219.2907    	0.000000    	                	;
 node_454        	221.4464    	0.000000    	                	;
 node_455        	222.2626    	0.000833    	                	;
 node_456        	214.3627    	0.005000    	                	;
 node_457        	213.9251    	0.060417    	                	;
 node_458        	215.5146    	0.000000    	                	;
 node_459        	217.4868    	0.000000    	                	;
 node_460        	219.4302    	0.000000    	                	;
 node_461        	218.9397    	0.001667    	                	;
 node_462        	220.1380    	0.006667    	                	;
 node_463        	211.9083    	0.005000    	                	;
 node_464        	220.8551    	0.000000    	                	;
 node_465        	220.2198    	0.000000    	                	;
 node_466        	219.8458    	0.000000    	                	;
 node_467        	223.3443    	0.000000    	                	;
 node_468        	222.3167    	0.000000    	                	;
 node_469        	221.7132    	0.000000    	                	;
 node_470        	217.1839    	0.000000    	                	;
 node_471        	218.4638    	0.000000    	                	;
 node_472        	220.3559    	0.000000    	                	;