[TITLE]
Converted from Epanet to Staci, case name: buk.spr


[JUNCTIONS]
;ID              	Elev        	Demand      	Pattern         
 node_0          	160.5803    	0.000000    	                	;
 node_1          	158.2254    	0.000000    	                	;
 node_2          	176.6311    	0.001574    	                	;
 node_3          	174.2781    	0.044853    	                	;
 node_4          	176.8269    	0.005509    	                	;
 node_5          	176.3303    	0.005509    	                	;
 node_6          	177.1085    	0.000787    	                	;
 node_7          	170.0513    	0.008658    	                	;
 node_8          	176.6815    	0.008658    	                	;
 node_9          	177.0486    	0.004722    	                	;
 node_10         	176.5659    	0.016528    	                	;
 node_11         	177.0315    	0.003935    	                	;
 node_12         	176.8051    	0.000000    	                	;
 node_13         	176.8765    	0.003935    	                	;
 node_14         	179.9741    	0.073651    	                	;
 node_15         	165.4159    	0.000000    	                	;
 node_16         	164.9993    	0.000000    	                	;
 node_17         	165.1714    	0.000000    	                	;
 node_18         	166.1636    	0.000000    	                	;
 node_19         	177.4086    	0.000000    	                	;
 node_20         	176.2467    	0.000000    	                	;
 node_21         	177.6449    	0.000000    	                	;
 node_22         	172.9294    	0.000000    	                	;
 node_23         	174.6810    	0.000000    	                	;
 node_24         	175.9160    	0.000000    	                	;
 node_25         	175.3936    	0.000000    	                	;
 node_26         	179.3009    	0.000000    	                	;
 node_27         	177.5051    	0.001574    	                	;
 node_28         	177.1372    	0.001574    	                	;
 node_29         	173.8197    	0.000000    	                	;
 node_30         	164.9468    	0.000000    	                	;
 node_31         	165.4487    	0.000000    	                	;
 node_32         	165.8957    	0.000000    	                	;
 node_33         	165.3840    	0.000000    	                	;
 node_34         	166.5671    	0.000000    	                	;
 node_35         	164.8246    	0.000000    	                	;
 node_36         	165.6979    	0.000000    	                	;
 node_37         	166.8147    	0.014167    	                	;
 node_38         	166.8834    	0.000000    	                	;
 node_39         	167.0376    	0.007083    	                	;
 node_40         	166.5689    	0.005509    	                	;
 node_41         	166.9137    	0.000000    	                	;
 node_42         	167.1283    	0.000000    	                	;
 node_43         	165.8469    	0.000000    	                	;
 node_44         	166.7760    	0.001574    	                	;
 node_45         	166.5771    	0.005509    	                	;
 node_46         	166.9794    	0.001574    	                	;
 node_47         	166.2153    	0.007870    	                	;
 node_48         	165.3169    	0.000000    	                	;
 node_49         	165.5665    	0.007870    	                	;
 node_50         	165.9015    	0.003148    	                	;
 node_51         	166.8546    	0.000000    	                	;
 node_52         	165.0106    	0.000787    	                	;
 node_53         	164.9555    	0.003935    	                	;
 node_54         	165.4347    	0.007870    	                	;
 node_55         	164.2638    	0.000787    	                	;
 node_56         	165.5620    	0.005509    	                	;
 node_57         	176.0224    	0.003935    	                	;
 node_58         	176.1450    	0.014167    	                	;
 node_59         	173.1684    	0.009444    	                	;
 node_60         	172.8943    	0.013332    	                	;
 node_61         	172.3067    	0.000000    	                	;
 node_62         	173.7002    	0.045648    	                	;
 node_63         	173.3345    	0.002338    	                	;
 node_64         	176.8161    	0.000000    	                	;
 node_65         	172.2889    	0.000000    	                	;
 node_66         	178.3040    	0.003935    	                	;
 node_67         	178.9541    	0.004817    	                	;
 node_68         	172.5799    	0.000787    	                	;
 node_69         	172.2559    	0.006296    	                	;
 node_70         	178.7691    	0.021250    	                	;
 node_71         	172.9695    	0.000000    	                	;
 node_72         	172.8446    	0.006831    	                	;
 node_73         	175.3449    	0.011806    	                	;
 node_74         	172.5399    	0.001574    	                	;
 node_75         	171.7783    	0.000000    	                	;
 node_76         	175.0616    	0.000000    	                	;
 node_77         	175.9333    	0.000000    	                	;
 node_78         	177.9416    	0.000000    	                	;
 node_79         	178.7362    	0.000000    	                	;
 node_80         	175.0019    	0.000000    	                	;
 node_81         	173.6805    	0.000000    	                	;
 node_82         	176.9120    	0.000000    	                	;
 node_83         	173.4799    	0.000000    	                	;
 node_84         	171.7992    	0.000000    	                	;
 node_85         	176.7042    	0.000000    	                	;
 node_86         	168.0133    	0.000000    	                	;
 node_87         	172.0473    	0.000000    	                	;
 node_88         	172.8350    	0.000000    	                	;
 node_89         	170.7695    	0.000000    	                	;
 node_90         	175.9613    	0.000000    	                	;
 node_91         	175.6855    	0.000000    	                	;
 node_92         	173.0114    	0.000000    	                	;
 node_93         	172.1866    	0.000000    	                	;
 node_94         	171.1595    	0.000000    	                	;
 node_95         	171.2348    	0.000000    	                	;
 node_96         	171.1289    	0.000000    	                	;
 node_97         	175.9170    	0.005509    	                	;
 node_98         	175.6673    	0.000000    	                	;
 node_99         	176.0416    	0.003148    	                	;
 node_100        	171.8624    	0.000000    	                	;
 node_101        	173.8731    	0.003148    	                	;
 node_102        	171.9334    	0.000000    	                	;
 node_103        	176.4046    	0.000000    	                	;
 node_104        	175.8809    	0.001574    	                	;
 node_105        	175.8232    	0.000000    	                	;
 node_106        	175.1756    	0.000000    	                	;
 node_107        	175.5594    	0.010231    	                	;
 node_108        	175.7720    	0.015741    	                	;
 node_109        	174.3150    	0.004722    	                	;
 node_110        	171.5376    	0.000000    	                	;
 node_111        	170.7062    	0.000000    	                	;
 node_112        	171.1172    	0.000000    	                	;
 node_113        	172.8597    	4.098362    	                	;
 node_114        	176.0933    	0.009444    	                	;
 node_115        	175.4727    	0.036912    	                	;
 node_116        	169.9724    	0.000000    	                	;
 node_117        	173.9313    	0.002361    	                	;
 node_118        	174.9413    	0.000787    	                	;
 node_119        	175.5677    	0.001574    	                	;
 node_120        	175.3371    	0.010231    	                	;
 node_121        	175.1784    	0.010231    	                	;
 node_122        	173.9260    	0.000000    	                	;
 node_123        	171.7972    	0.002361    	                	;
 node_124        	171.5265    	0.002361    	                	;
 node_125        	171.8011    	0.007083    	                	;
 node_126        	176.8668    	0.003935    	                	;
 node_127        	177.2669    	0.004722    	                	;
 node_128        	176.1619    	0.001574    	                	;
 node_129        	175.3647    	0.003935    	                	;
 node_130        	174.6490    	0.003148    	                	;
 node_131        	170.7223    	0.015678    	                	;
 node_132        	170.1926    	0.012592    	                	;
 node_133        	170.6429    	0.008658    	                	;
 node_134        	176.2231    	0.002361    	                	;
 node_135        	176.3371    	0.000787    	                	;
 node_136        	176.4798    	0.006296    	                	;
 node_137        	172.7880    	0.006296    	                	;
 node_138        	172.0333    	0.003148    	                	;
 node_139        	177.7600    	0.008658    	                	;
 node_140        	178.4157    	0.018102    	                	;
 node_141        	177.8671    	0.010231    	                	;
 node_142        	178.9557    	0.009248    	                	;
 node_143        	176.9779    	0.000000    	                	;
 node_144        	178.7846    	0.014174    	                	;
 node_145        	174.9542    	0.010231    	                	;
 node_146        	174.4383    	0.009444    	                	;
 node_147        	175.6790    	0.008658    	                	;
 node_148        	178.9946    	0.004722    	                	;
 node_149        	179.1405    	0.013380    	                	;
 node_150        	179.3533    	0.002361    	                	;
 node_151        	179.4641    	0.002361    	                	;
 node_152        	179.0869    	0.009444    	                	;
 node_153        	173.3341    	0.000000    	                	;
 node_154        	173.4484    	0.005509    	                	;
 node_155        	176.2049    	0.006296    	                	;
 node_156        	175.8404    	0.006296    	                	;
 node_157        	175.7303    	0.007083    	                	;
 node_158        	175.9940    	0.030694    	                	;
 node_159        	176.8116    	0.006296    	                	;
 node_160        	178.4777    	0.025185    	                	;
 node_161        	175.6606    	0.022037    	                	;
 node_162        	175.4876    	0.001574    	                	;
 node_163        	174.5000    	0.014954    	                	;
 node_164        	175.0346    	0.040587    	                	;
 node_165        	174.1334    	0.000000    	                	;
 node_166        	176.3080    	0.013380    	                	;
 node_167        	179.3830    	0.021250    	                	;
 node_168        	172.8140    	0.005509    	                	;
 node_169        	173.1198    	0.002361    	                	;
 node_170        	173.1741    	0.010231    	                	;
 node_171        	173.2783    	0.007870    	                	;
 node_172        	176.0481    	0.000000    	                	;
 node_173        	175.8194    	0.000000    	                	;
 node_174        	175.9401    	0.000000    	                	;
 node_175        	173.8876    	0.006296    	                	;
 node_176        	177.7761    	0.006296    	                	;
 node_177        	172.1396    	0.022824    	                	;
 node_178        	173.3556    	0.006296    	                	;
 node_179        	172.5914    	0.002361    	                	;
 node_180        	172.7241    	0.007870    	                	;
 node_181        	174.4975    	0.005509    	                	;
 node_182        	175.5453    	0.000000    	                	;
 node_183        	174.6587    	0.006296    	                	;
 node_184        	173.4972    	0.000000    	                	;
 node_185        	176.0334    	0.000000    	                	;
 node_186        	174.0149    	0.002361    	                	;
 node_187        	174.6359    	0.000000    	                	;
 node_188        	172.9563    	0.024398    	                	;
 node_189        	179.8649    	0.010452    	                	;
 node_190        	175.4025    	0.000000    	                	;
 node_191        	174.0148    	0.000000    	                	;
 node_192        	178.4808    	0.018889    	                	;
 node_193        	175.0211    	0.000000    	                	;
 node_194        	178.6629    	0.000787    	                	;
 node_195        	178.3992    	0.005509    	                	;
 node_196        	178.3554    	0.013380    	                	;
 node_197        	178.5991    	0.008658    	                	;
 node_198        	179.4133    	0.000000    	                	;
 node_199        	175.4596    	0.001574    	                	;
 node_200        	174.9865    	0.003935    	                	;
 node_201        	175.1326    	0.003148    	                	;
 node_202        	177.6871    	0.001574    	                	;
 node_203        	170.7010    	0.013380    	                	;
 node_204        	173.5153    	0.012592    	                	;
 node_205        	177.0729    	0.003148    	                	;
 node_206        	172.4409    	0.000000    	                	;
 node_207        	174.4597    	0.000787    	                	;
 node_208        	174.5184    	0.000787    	                	;
 node_209        	172.8326    	0.006296    	                	;
 node_210        	172.9081    	0.006296    	                	;
 node_211        	166.0763    	0.002361    	                	;
 node_212        	165.6452    	0.016709    	                	;
 node_213        	165.0757    	0.001574    	                	;
 node_214        	165.4676    	0.003644    	                	;
 node_215        	165.0939    	0.010231    	                	;
 node_216        	166.2619    	0.000000    	                	;
 node_217        	164.9123    	0.005509    	                	;
 node_218        	166.0259    	0.007083    	                	;
 node_219        	165.8804    	0.002361    	                	;
 node_220        	165.1151    	0.000000    	                	;
 node_221        	165.3242    	0.001574    	                	;
 node_222        	164.6663    	0.000000    	                	;
 node_223        	165.7346    	0.003935    	                	;
 node_224        	165.9658    	0.014954    	                	;
 node_225        	166.8804    	0.003148    	                	;
 node_226        	166.8868    	0.003935    	                	;
 node_227        	164.9191    	0.007870    	                	;
 node_228        	164.9091    	0.007083    	                	;
 node_229        	164.5050    	0.000000    	                	;
 node_230        	164.5536    	0.000000    	                	;
 node_231        	159.0596    	0.010231    	                	;
 node_232        	157.7467    	0.003148    	                	;
 node_233        	159.5787    	0.006296    	                	;
 node_234        	160.5139    	0.000000    	                	;
 node_235        	160.9072    	0.000787    	                	;
 node_236        	160.8574    	0.007870    	                	;
 node_237        	160.4888    	0.000000    	                	;
 node_238        	160.4677    	0.000000    	                	;
 node_239        	160.7219    	0.000000    	                	;
 node_240        	160.5151    	0.007083    	                	;
 node_241        	160.4050    	0.000000    	                	;
 node_242        	168.9375    	0.004722    	                	;
 node_243        	166.0995    	0.000000    	                	;
 node_244        	166.3448    	0.000000    	                	;
 node_245        	167.2062    	0.000000    	                	;
 node_246        	168.8024    	0.010231    	                	;
 node_247        	167.1779    	0.000000    	                	;
 node_248        	165.9367    	0.004722    	                	;
 node_249        	166.5622    	0.000000    	                	;
 node_250        	166.5830    	0.006296    	                	;
 node_251        	166.4262    	0.000000    	                	;
 node_252        	165.9747    	0.010231    	                	;
 node_253        	166.1200    	0.000787    	                	;
 node_254        	166.3087    	0.003148    	                	;
 node_255        	164.4672    	0.001574    	                	;
 node_256        	165.6843    	0.000787    	                	;
 node_257        	164.4873    	0.000000    	                	;
 node_258        	164.2308    	0.000000    	                	;
 node_259        	167.4807    	0.005509    	                	;
 node_260        	164.8352    	0.006296    	                	;
 node_261        	164.7572    	0.000000    	                	;
 node_262        	164.4852    	0.000787    	                	;
 node_263        	164.7761    	0.000000    	                	;
 node_264        	164.4169    	0.007870    	                	;
 node_265        	169.9131    	0.001574    	                	;
 node_266        	168.5769    	0.004557    	                	;
 node_267        	169.8548    	0.000000    	                	;
 node_268        	167.4265    	0.000000    	                	;
 node_269        	166.8554    	0.000000    	                	;
 node_270        	168.7902    	0.003148    	                	;
 node_271        	167.7212    	0.007083    	                	;
 node_272        	170.5800    	0.000000    	                	;
 node_273        	165.3495    	0.000000    	                	;
 node_274        	167.4971    	0.001574    	                	;
 node_275        	166.6607    	0.000000    	                	;
 node_276        	166.0731    	0.005509    	                	;
 node_277        	177.8674    	0.000000    	                	;
 node_278        	160.7317    	0.000000    	                	;
 node_279        	178.1957    	0.003935    	                	;
 node_280        	173.3026    	0.194044    	                	;
 node_281        	170.4252    	0.010231    	                	;
 node_282        	170.0651    	0.007083    	                	;
 node_283        	179.3072    	0.022777    	                	;
 node_284        	176.9410    	0.000000    	                	;
 node_285        	170.7549    	0.007083    	                	;
 node_286        	175.0159    	0.031481    	                	;
 node_287        	176.9035    	0.003148    	                	;
 node_288        	176.6180    	0.007870    	                	;
 node_289        	176.3688    	0.001574    	                	;
 node_290        	176.8323    	0.018889    	                	;
 node_291        	175.6763    	0.000000    	                	;
 node_292        	176.4948    	0.006296    	                	;
 node_293        	178.6513    	0.050693    	                	;
 node_294        	176.7573    	0.055880    	                	;
 node_295        	175.9830    	0.000000    	                	;
 node_296        	176.7965    	0.007870    	                	;
 node_297        	179.0992    	0.021888    	                	;
 node_298        	165.5646    	0.000000    	                	;
 node_299        	166.8509    	0.000000    	                	;
 node_300        	166.0064    	0.000000    	                	;
 node_301        	172.4921    	0.000000    	                	;
 node_302        	173.7704    	0.000000    	                	;
 node_303        	172.8141    	0.000000    	                	;
 node_304        	174.0827    	0.000000    	                	;
 node_305        	175.1295    	0.000000    	                	;
 node_306        	175.1352    	0.000000    	                	;
 node_307        	178.8796    	0.000000    	                	;
 node_308        	172.3442    	0.000000    	                	;
 node_309        	171.3522    	0.000000    	                	;
 node_310        	172.6743    	0.000000    	                	;
 node_311        	175.2044    	0.000000    	                	;
 node_312        	177.6391    	0.008658    	                	;
 node_313        	162.2032    	0.000000    	                	;
 node_314        	164.9434    	0.000000    	                	;
 node_315        	166.4825    	0.000000    	                	;
 node_316        	165.7223    	0.000000    	                	;
 node_317        	166.8009    	0.000000    	                	;
 node_318        	164.5751    	0.000000    	                	;
 node_319        	165.2628    	0.000000    	                	;
 node_320        	165.3245    	0.059224    	                	;
 node_321        	165.8105    	0.008658    	                	;
 node_322        	166.7812    	0.000000    	                	;
 node_323        	165.9853    	0.006296    	                	;
 node_324        	166.6252    	0.007083    	                	;
 node_325        	166.5821    	0.003148    	                	;
 node_326        	166.6662    	0.024398    	                	;
 node_327        	164.8098    	0.000000    	                	;
 node_328        	165.2482    	0.000000    	                	;
 node_329        	176.2626    	0.013380    	                	;
 node_330        	173.1240    	0.001574    	                	;
 node_331        	174.1386    	0.000000    	                	;
 node_332        	173.3263    	0.022037    	                	;
 node_333        	174.4070    	0.007870    	                	;
 node_334        	172.9510    	0.008658    	                	;
 node_335        	172.9780    	0.011806    	                	;
 node_336        	172.0364    	0.003148    	                	;
 node_337        	173.9263    	0.002361    	                	;
 node_338        	173.0510    	0.000787    	                	;
 node_339        	172.7641    	0.000260    	                	;
 node_340        	178.8317    	0.008500    	                	;
 node_341        	178.8554    	0.004722    	                	;
 node_342        	170.4848    	0.013380    	                	;
 node_343        	172.7801    	0.002361    	                	;
 node_344        	173.5176    	0.002361    	                	;
 node_345        	178.7676    	0.035535    	                	;
 node_346        	171.9717    	0.085748    	                	;
 node_347        	177.3302    	0.000000    	                	;
 node_348        	174.4545    	0.000000    	                	;
 node_349        	178.7546    	0.000000    	                	;
 node_350        	178.3150    	0.000000    	                	;
 node_351        	174.6379    	0.000000    	                	;
 node_352        	176.2501    	0.000000    	                	;
 node_353        	175.8488    	0.000000    	                	;
 node_354        	177.3704    	0.000000    	                	;
 node_355        	176.7129    	0.000000    	                	;
 node_356        	173.6045    	0.000000    	                	;
 node_357        	176.6387    	0.000000    	                	;
 node_358        	178.4252    	0.000000    	                	;
 node_359        	176.9835    	0.000000    	                	;
 node_360        	172.0808    	0.007870    	                	;
 node_361        	171.1318    	0.000000    	                	;
 node_362        	172.3383    	0.000000    	                	;
 node_363        	176.0497    	0.002361    	                	;
 node_364        	175.8642    	0.011019    	                	;
 node_365        	176.0161    	0.011019    	                	;
 node_366        	176.0088    	0.005509    	                	;
 node_367        	176.4619    	0.010231    	                	;
 node_368        	171.1265    	0.000000    	                	;
 node_369        	171.5052    	0.000000    	                	;
 node_370        	172.0527    	0.003935    	                	;
 node_371        	176.4086    	0.007870    	                	;
 node_372        	175.8143    	0.000000    	                	;
 node_373        	175.9853    	0.000000    	                	;
 node_374        	175.4674    	0.002361    	                	;
 node_375        	172.8160    	0.011019    	                	;
 node_376        	173.2874    	0.007083    	                	;
 node_377        	173.2010    	0.014954    	                	;
 node_378        	172.8809    	0.000000    	                	;
 node_379        	170.7064    	0.000000    	                	;
 node_380        	172.1751    	0.000000    	                	;
 node_381        	171.0411    	0.027790    	                	;
 node_382        	171.0012    	0.000000    	                	;
 node_383        	172.0550    	0.000000    	                	;
 node_384        	172.8855    	0.000787    	                	;
 node_385        	178.7932    	0.106832    	                	;
 node_386        	175.1761    	0.012592    	                	;
 node_387        	173.3627    	0.000000    	                	;
 node_388        	175.6199    	0.009444    	                	;
 node_389        	174.3937    	0.000000    	                	;
 node_390        	174.6270    	0.003148    	                	;
 node_391        	172.3104    	0.000787    	                	;
 node_392        	172.6806    	0.011019    	                	;
 node_393        	177.0144    	0.000787    	                	;
 node_394        	176.9249    	0.004722    	                	;
 node_395        	176.9801    	0.003148    	                	;
 node_396        	176.8503    	0.011019    	                	;
 node_397        	173.6024    	0.004722    	                	;
 node_398        	176.1172    	0.004722    	                	;
 node_399        	176.1283    	0.006296    	                	;
 node_400        	175.6713    	0.002361    	                	;
 node_401        	174.5132    	0.004722    	                	;
 node_402        	174.5008    	0.023761    	                	;
 node_403        	170.2573    	0.011806    	                	;
 node_404        	176.1092    	0.013380    	                	;
 node_405        	176.2055    	0.003935    	                	;
 node_406        	176.4841    	0.023611    	                	;
 node_407        	176.3440    	0.000000    	                	;
 node_408        	176.5800    	0.005509    	                	;
 node_409        	176.6452    	0.001574    	                	;
 node_410        	170.9038    	0.011019    	                	;
 node_411        	170.8354    	0.018102    	                	;
 node_412        	172.4941    	0.007083    	                	;
 node_413        	172.1367    	0.006296    	                	;
 node_414        	173.5423    	0.001574    	                	;
 node_415        	178.3583    	0.002361    	                	;
 node_416        	177.3556    	0.000000    	                	;
 node_417        	177.5059    	0.003935    	                	;
 node_418        	179.2216    	0.003148    	                	;
 node_419        	173.8643    	0.002361    	                	;
 node_420        	174.2683    	0.000000    	                	;
 node_421        	178.8397    	0.007083    	                	;
 node_422        	179.4553    	0.011019    	                	;
 node_423        	179.3102    	0.006296    	                	;
 node_424        	179.2255    	0.003935    	                	;
 node_425        	179.4773    	0.009444    	                	;
 node_426        	173.3101    	0.001401    	                	;
 node_427        	173.5576    	0.000787    	                	;
 node_428        	173.4375    	0.000000    	                	;
 node_429        	176.5140    	0.012592    	                	;
 node_430        	177.0723    	0.010231    	                	;
 node_431        	174.8451    	0.000787    	                	;
 node_432        	176.8171    	0.024398    	                	;
 node_433        	178.4317    	0.006296    	                	;
 node_434        	179.9762    	0.000000    	                	;
 node_435        	175.2736    	0.007870    	                	;
 node_436        	175.3980    	0.015741    	                	;
 node_437        	175.5212    	0.006296    	                	;
 node_438        	176.9119    	0.020337    	                	;
 node_439        	176.0487    	0.023611    	                	;
 node_440        	175.9978    	0.004722    	                	;
 node_441        	176.8518    	0.009444    	                	;
 node_442        	179.4484    	0.015678    	                	;
 node_443        	179.4027    	0.004722    	                	;
 node_444        	179.8880    	0.035031    	                	;
 node_445        	178.9124    	0.006296    	                	;
 node_446        	173.2876    	0.002361    	                	;
 node_447        	172.9340    	0.007870    	                	;
 node_448        	173.0525    	0.000000    	                	;
 node_449        	174.0349    	0.007083    	                	;
 node_450        	174.0735    	0.023611    	                	;
 node_451        	174.0394    	0.007083    	                	;
 node_452        	173.9920    	0.025185    	                	;
 node_453        	177.0676    	0.010231    	                	;
 node_454        	175.2734    	0.012592    	                	;
 node_455        	175.6194    	0.008658    	                	;
 node_456        	175.6619    	0.000000    	                	;
 node_457        	176.8397    	0.003148    	                	;
 node_458        	174.5821    	0.000000    	                	;
 node_459        	174.7298    	0.018889    	                	;
 node_460        	175.3730    	0.014954    	                	;
 node_461        	175.5157    	0.003148    	                	;
 node_462        	178.3934    	0.009444    	                	;
 node_463        	173.8714    	0.000787    	                	;
 node_464        	175.8649    	0.011019    	                	;
 node_465        	173.7389    	0.001574    	                	;
 node_466        	173.9861    	0.003935    	                	;
 node_467        	178.2213    	0.010231    	                	;
 node_468        	179.3574    	0.004722    	                	;
 node_469        	175.1212    	0.004722    	                	;
 node_470        	170.8001    	0.001574    	                	;
 node_471        	170.9975    	0.003148    	                	;
 node_472        	176.4096    	0.005509    	                	;
 node_473        	176.4248    	0.024398    	                	;