[TITLE]
Converted from Epanet to Staci, case name: csillahegy.spr


[JUNCTIONS]
;ID              	Elev        	Demand      	Pattern         
 node_0          	147.9238    	0.000000    	                	;
 node_1          	156.1032    	0.005000    	                	;
 node_2          	154.7803    	0.004112    	                	;
 node_3          	154.5722    	0.004167    	                	;
 node_4          	155.3095    	0.003750    	                	;
 node_5          	153.3682    	0.008333    	                	;
 node_6          	163.7525    	0.001250    	                	;
 node_7          	163.7663    	0.002083    	                	;
 node_8          	151.1943    	0.004583    	                	;
 node_9          	163.6289    	0.001154    	                	;
 node_10         	147.7679    	0.003804    	                	;
 node_11         	163.7807    	0.000000    	                	;
 node_12         	159.9160    	0.000000    	                	;
 node_13         	161.8108    	0.000000    	                	;
 node_14         	155.8783    	0.006250    	                	;
 node_15         	164.0523    	0.004167    	                	;
 node_16         	146.6477    	0.006321    	                	;
 node_17         	163.8473    	0.008596    	                	;
 node_18         	161.1360    	0.003750    	                	;
 node_19         	148.1501    	0.000737    	                	;
 node_20         	160.1870    	0.000000    	                	;
 node_21         	163.5813    	0.000000    	                	;
 node_22         	158.5410    	0.000417    	                	;
 node_23         	163.5320    	0.010996    	                	;
 node_24         	157.1786    	0.000000    	                	;
 node_25         	162.5273    	0.000000    	                	;
 node_26         	153.9627    	0.010362    	                	;
 node_27         	143.6884    	0.009167    	                	;
 node_28         	161.9793    	0.004583    	                	;
 node_29         	164.0307    	0.005146    	                	;
 node_30         	164.0115    	0.000833    	                	;
 node_31         	161.9882    	0.002917    	                	;
 node_32         	161.3469    	0.000000    	                	;
 node_33         	160.8222    	0.002633    	                	;
 node_34         	157.0789    	0.002500    	                	;
 node_35         	150.0508    	0.005000    	                	;
 node_36         	137.3308    	0.000000    	                	;
 node_37         	164.0160    	0.001250    	                	;
 node_38         	163.3677    	0.004167    	                	;
 node_39         	163.8506    	0.000000    	                	;
 node_40         	155.8816    	0.002917    	                	;
 node_41         	160.2214    	0.010646    	                	;
 node_42         	162.8164    	0.008604    	                	;
 node_43         	161.3392    	0.001667    	                	;
 node_44         	148.6033    	0.003750    	                	;
 node_45         	148.7274    	0.007083    	                	;
 node_46         	145.1469    	0.000000    	                	;
 node_47         	156.5398    	0.000000    	                	;
 node_48         	164.0524    	0.003500    	                	;
 node_49         	163.7640    	0.001667    	                	;
 node_50         	162.2779    	0.000000    	                	;
 node_51         	164.0517    	0.000000    	                	;
 node_52         	161.7937    	0.004721    	                	;
 node_53         	161.4185    	0.010487    	                	;
 node_54         	164.0537    	0.006250    	                	;
 node_55         	162.4789    	0.009583    	                	;
 node_56         	160.4151    	0.010063    	                	;
 node_57         	137.4280    	0.000000    	                	;
 node_58         	160.8529    	0.006250    	                	;
 node_59         	157.1420    	0.002917    	                	;
 node_60         	159.4898    	0.000000    	                	;
 node_61         	161.3853    	0.000000    	                	;
 node_62         	161.3586    	0.000000    	                	;
 node_63         	154.1382    	0.000000    	                	;
 node_64         	153.9549    	0.000000    	                	;
 node_65         	154.1799    	0.000000    	                	;
 node_66         	153.9879    	0.000000    	                	;
 node_67         	147.9472    	0.000000    	                	;
 node_68         	147.7952    	0.000000    	                	;
 node_69         	161.3828    	0.000000    	                	;
 node_70         	161.3562    	0.000000    	                	;
 node_71         	162.5236    	0.000000    	                	;
 node_72         	162.4886    	0.000000    	                	;
 node_74         	154.1717    	0.000000    	                	;
 node_75         	153.9797    	0.000000    	                	;
 node_76         	161.3904    	0.000000    	                	;
 node_77         	161.3638    	0.000000    	                	;
 node_78         	162.5006    	0.000000    	                	;
 node_79         	163.5704    	0.000000    	                	;
 node_80         	161.3841    	0.000000    	                	;
 node_81         	153.5558    	0.000000    	                	;
 node_82         	163.5737    	0.000000    	                	;
 node_83         	163.5498    	0.000000    	                	;
 node_84         	154.1509    	0.000000    	                	;
 node_85         	153.9681    	0.000000    	                	;
 node_86         	154.1591    	0.000000    	                	;
 node_87         	137.1988    	0.000000    	                	;
 node_88         	137.0248    	0.000000    	                	;
 node_89         	161.3784    	0.000000    	                	;
 node_90         	161.3517    	0.000000    	                	;
 node_91         	162.5310    	0.000000    	                	;
 node_92         	162.4960    	0.000000    	                	;

[RESERVOIRS]
;ID              	Head        	Pattern         
 pres_0          	194.2582    	                

[TANKS]
;ID             	Elevation   	InitLevel   	MinLevel    	MaxLevel    	Diameter    	MinVol      	VolCurve

[PIPES]
;ID             	Node1           	Node2           	Length      	Diameter    	Roughness   	MinorLoss   	Status
 pipe_0          	node_79         	node_49         	21.0513     	90.0000     	-0.0200     	0.0000      	Open  ;
 pipe_1          	node_81         	node_12         	112.2711    	90.0000     	-0.0200     	0.0000      	Open  ;
 pipe_2          	node_44         	node_45         	1.3952      	90.0000     	-0.0200     	0.0000      	Open  ;
 pipe_3          	node_45         	node_35         	15.2198     	90.0000     	-0.0200     	0.0000      	Open  ;
 pipe_4          	node_10         	node_19         	4.2727      	90.0000     	-0.0200     	0.0000      	Open  ;
 pipe_5          	node_59         	node_34         	1.1118      	90.0000     	-0.0200     	0.0000      	Open  ;
 pipe_6          	node_58         	node_18         	19.0346     	90.0000     	-0.0200     	0.0000      	Open  ;
 pipe_7          	node_19         	node_8          	35.1112     	90.0000     	-0.0200     	0.0000      	Open  ;
 pipe_8          	node_9          	node_7          	10.1553     	90.0000     	-0.0200     	0.0000      	Open  ;
 pipe_9          	node_49         	node_6          	8.7802      	90.0000     	-0.0200     	0.0000      	Open  ;
 pipe_10         	node_6          	node_11         	12.3857     	90.0000     	-0.0200     	0.0000      	Open  ;
 pipe_11         	node_35         	node_5          	40.9870     	90.0000     	-0.0200     	0.0000      	Open  ;
 pipe_12         	node_5          	node_81         	1.7257      	90.0000     	-0.0200     	0.0000      	Open  ;
 pipe_13         	node_60         	node_56         	43.5542     	90.0000     	-0.0200     	0.0000      	Open  ;
 pipe_14         	node_56         	node_58         	27.2713     	90.0000     	-0.0200     	0.0000      	Open  ;
 pipe_15         	node_78         	node_55         	1.7979      	90.0000     	-0.0200     	0.0000      	Open  ;
 pipe_16         	node_23         	node_79         	10.0962     	90.0000     	-0.0200     	0.0000      	Open  ;
 pipe_17         	node_16         	node_10         	14.8713     	90.0000     	-0.0200     	0.0000      	Open  ;
 pipe_18         	node_60         	node_22         	17.8572     	90.0000     	-0.0200     	0.0000      	Open  ;
 pipe_19         	node_22         	node_59         	30.0610     	90.0000     	-0.0200     	0.0000      	Open  ;
 pipe_20         	node_4          	node_2          	15.6998     	90.0000     	-0.0200     	0.0000      	Open  ;
 pipe_21         	node_34         	node_1          	19.9739     	90.0000     	-0.0200     	0.0000      	Open  ;
 pipe_22         	node_1          	node_4          	19.2127     	90.0000     	-0.0200     	0.0000      	Open  ;
 pipe_23         	node_32         	node_43         	2.3409      	90.0000     	-0.0200     	0.0000      	Open  ;
 pipe_24         	node_31         	node_42         	39.9758     	90.0000     	-0.0200     	0.0000      	Open  ;
 pipe_25         	node_42         	node_38         	34.8768     	90.0000     	-0.0200     	0.0000      	Open  ;
 pipe_26         	node_15         	node_54         	9.7069      	90.0000     	-0.0200     	0.0000      	Open  ;
 pipe_27         	node_54         	node_48         	0.1843      	90.0000     	-0.0200     	0.0000      	Open  ;
 pipe_28         	node_48         	node_30         	18.8251     	90.0000     	-0.0200     	0.0000      	Open  ;
 pipe_29         	node_30         	node_37         	2.9483      	90.0000     	-0.0200     	0.0000      	Open  ;
 pipe_30         	node_37         	node_29         	11.4940     	90.0000     	-0.0200     	0.0000      	Open  ;
 pipe_31         	node_29         	node_39         	20.8613     	90.0000     	-0.0200     	0.0000      	Open  ;
 pipe_32         	node_43         	node_28         	38.1628     	90.0000     	-0.0200     	0.0000      	Open  ;
 pipe_33         	node_28         	node_31         	0.2277      	90.0000     	-0.0200     	0.0000      	Open  ;
 pipe_34         	node_53         	node_33         	28.7863     	90.0000     	-0.0200     	0.0000      	Open  ;
 pipe_35         	node_52         	node_53         	13.7458     	90.0000     	-0.0200     	0.0000      	Open  ;
 pipe_36         	node_33         	node_41         	27.4032     	90.0000     	-0.0200     	0.0000      	Open  ;
 pipe_37         	node_7          	node_51         	50.1408     	90.0000     	-0.0200     	0.0000      	Open  ;
 pipe_38         	node_51         	node_15         	0.3994      	90.0000     	-0.0200     	0.0000      	Open  ;
 pipe_39         	node_38         	node_21         	10.7808     	90.0000     	-0.0200     	0.0000      	Open  ;
 pipe_40         	node_21         	node_9          	1.2940      	90.0000     	-0.0200     	0.0000      	Open  ;
 pipe_41         	node_50         	node_23         	69.6989     	90.0000     	-0.0200     	0.0000      	Open  ;
 pipe_42         	node_36         	node_57         	4.0770      	90.0000     	-0.0200     	0.0000      	Open  ;
 pipe_43         	node_46         	node_16         	23.8542     	90.0000     	-0.0200     	0.0000      	Open  ;
 pipe_44         	node_57         	node_27         	102.6727    	90.0000     	-0.0200     	0.0000      	Open  ;
 pipe_45         	node_27         	node_46         	14.8778     	90.0000     	-0.0200     	0.0000      	Open  ;
 pipe_46         	node_2          	node_26         	44.0618     	90.0000     	-0.0200     	0.0000      	Open  ;
 pipe_47         	node_3          	node_40         	51.7039     	90.0000     	-0.0200     	0.0000      	Open  ;
 pipe_48         	node_40         	node_14         	1.2822      	90.0000     	-0.0200     	0.0000      	Open  ;
 pipe_49         	node_14         	node_47         	18.4757     	90.0000     	-0.0200     	0.0000      	Open  ;
 pipe_50         	node_41         	node_20         	1.6945      	90.0000     	-0.0200     	0.0000      	Open  ;
 pipe_51         	node_20         	node_60         	10.8767     	90.0000     	-0.0200     	0.0000      	Open  ;
 pipe_52         	node_55         	node_13         	43.9771     	90.0000     	-0.0200     	0.0000      	Open  ;
 pipe_53         	node_13         	node_52         	0.6651      	90.0000     	-0.0200     	0.0000      	Open  ;
 pipe_54         	node_78         	node_72         	1.8450      	90.0000     	-0.0200     	0.0000      	Open  ;
 pipe_55         	node_71         	node_25         	0.3000      	90.0000     	-0.0200     	0.0000      	Open  ;
 pipe_56         	node_0          	node_68         	0.2635      	90.0000     	-0.0200     	0.0000      	Open  ;
 pipe_57         	node_67         	node_44         	7.3768      	90.0000     	-0.0200     	0.0000      	Open  ;
 pipe_58         	node_12         	node_92         	149.6037    	90.0000     	-0.0200     	0.0000      	Open  ;
 pipe_59         	node_91         	node_25         	0.3000      	90.0000     	-0.0200     	0.0000      	Open  ;
 pipe_60         	node_79         	node_83         	0.2868      	63.0000     	-0.0200     	0.0000      	Open  ;
 pipe_61         	node_82         	node_17         	31.7277     	63.0000     	-0.0200     	0.0000      	Open  ;
 pipe_62         	pres_0          	node_88         	0.3232      	90.0000     	-0.0200     	0.0000      	Open  ;
 pipe_63         	node_87         	node_36         	2.0455      	90.0000     	-0.0200     	0.0000      	Open  ;
 pipe_64         	node_86         	node_66         	0.2157      	90.0000     	-0.0200     	0.0000      	Open  ;
 pipe_65         	node_65         	node_24         	35.5217     	90.0000     	-0.0200     	0.0000      	Open  ;
 pipe_66         	node_86         	node_75         	0.2223      	90.0000     	-0.0200     	0.0000      	Open  ;
 pipe_67         	node_74         	node_3          	7.0513      	90.0000     	-0.0200     	0.0000      	Open  ;
 pipe_68         	node_8          	node_64         	40.7182     	90.0000     	-0.0200     	0.0000      	Open  ;
 pipe_69         	node_63         	node_86         	0.2157      	90.0000     	-0.0200     	0.0000      	Open  ;
 pipe_70         	node_26         	node_85         	16.8174     	90.0000     	-0.0200     	0.0000      	Open  ;
 pipe_71         	node_84         	node_86         	0.2441      	90.0000     	-0.0200     	0.0000      	Open  ;
 pipe_72         	node_18         	node_62         	13.7174     	90.0000     	-0.0200     	0.0000      	Open  ;
 pipe_73         	node_61         	node_80         	0.2241      	90.0000     	-0.0200     	0.0000      	Open  ;
 pipe_74         	node_24         	node_90         	74.6014     	90.0000     	-0.0200     	0.0000      	Open  ;
 pipe_75         	node_89         	node_80         	0.2085      	90.0000     	-0.0200     	0.0000      	Open  ;
 pipe_76         	node_80         	node_70         	0.2241      	90.0000     	-0.0200     	0.0000      	Open  ;
 pipe_77         	node_69         	node_32         	10.8766     	90.0000     	-0.0200     	0.0000      	Open  ;
 pipe_78         	node_80         	node_77         	0.2277      	90.0000     	-0.0200     	0.0000      	Open  ;
 pipe_79         	node_76         	node_50         	30.0551     	90.0000     	-0.0200     	0.0000      	Open  ;

[PUMPS]
;ID             	Node1           	Node2           	Parameters

[VALVES]
;ID             	Node1           	Node2           	Diameter    	Type	Setting     	MinorLoss   
 valve_0         	node_67         	node_68         	100.0000    	ISO 	0.0000      	0.0000      
 valve_1         	node_87         	node_88         	100.0000    	ISO 	0.0000      	0.0000      
 valve_2         	node_61         	node_62         	100.0000    	ISO 	0.0000      	0.0000      
 valve_3         	node_84         	node_85         	100.0000    	ISO 	0.0000      	0.0000      
 valve_4         	node_89         	node_90         	100.0000    	ISO 	0.0000      	0.0000      
 valve_5         	node_91         	node_92         	100.0000    	ISO 	0.0000      	0.0000      
 valve_6         	node_69         	node_70         	100.0000    	ISO 	0.0000      	0.0000      
 valve_7         	node_74         	node_75         	100.0000    	ISO 	0.0000      	0.0000      
 valve_8         	node_65         	node_66         	100.0000    	ISO 	0.0000      	0.0000      
 valve_9         	node_71         	node_72         	100.0000    	ISO 	0.0000      	0.0000      
 valve_10        	node_82         	node_83         	100.0000    	ISO 	0.0000      	0.0000      
 valve_11        	node_76         	node_77         	100.0000    	ISO 	0.0000      	0.0000      
 valve_12        	node_63         	node_64         	100.0000    	ISO 	0.0000      	0.0000      

[TAGS]

[DEMANDS]
;Junction       	Demand      	Pattern         	Category

[STATUS]
;ID              	Status/Setting

[PATTERNS]
;ID             	Multipliers

[CURVES]
;ID             	X-Value     	Y-Value

[CONTROLS]

[RULES]

[ENERGY]

[EMITTERS]

[QUALITY]

[SOURCES]

[REACTIONS]

[MIXING]

[TIMES]

[REPORT]

[OPTIONS]
 Units              	LPS
 Headloss           	D-W
 Specific Gravity   	1.0
 Viscosity          	1.0
 Trials             	40
 Accuracy           	0.001
 CHECKFREQ          	2
 MAXCHECK           	10
 DAMPLIMIT          	0
 Unbalanced         	Continue 10
 Pattern            	1
 Demand Multiplier  	1.0
 Emitter Exponent   	0.5
 Quality            	Chlorine mg/L
 Diffusivity        	1.0
 Tolerance          	0.01

[COORDINATES]
;Node           	X-Coord         	Y-Coord
 node_0          	255995.5698     	476440.1843     
 node_1          	255896.4130     	476483.3652     
 node_2          	255894.2867     	476518.1331     
 node_3          	255862.0304     	476575.7931     
 node_4          	255896.2857     	476502.5735     
 node_5          	255963.5185     	476383.5706     
 node_6          	255701.0546     	476385.8625     
 node_7          	255653.8066     	476547.0119     
 node_8          	255895.8720     	476601.8080     
 node_9          	255663.9491     	476547.5212     
 node_10         	255922.6082     	476630.7263     
 node_11         	255694.5724     	476375.3086     
 node_12         	255911.7801     	476282.1266     
 node_13         	255830.5962     	476361.1899     
 node_14         	255820.3257     	476608.0401     
 node_15         	255607.0570     	476529.2221     
 node_16         	255933.3588     	476641.0007     
 node_17         	255691.7140     	476427.3893     
 node_18         	255801.3174     	476487.6077     
 node_19         	255919.7076     	476627.5890     
 node_20         	255858.4368     	476425.7573     
 node_21         	255665.2415     	476547.5861     
 node_22         	255882.8336     	476434.4710     
 node_23         	255724.3184     	476418.2643     
 node_24         	255842.9339     	476546.3614     
 node_25         	255800.2174     	476324.1311     
 node_26         	255879.3289     	476558.9392     
 node_27         	255960.7400     	476668.3703     
 node_28         	255746.4710     	476523.4097     
 node_29         	255569.8207     	476507.4021     
 node_30         	255582.2680     	476514.7264     
 node_31         	255746.2827     	476523.5378     
 node_32         	255779.9656     	476500.6356     
 node_33         	255854.2028     	476397.0001     
 node_34         	255893.7226     	476463.6631     
 node_35         	255982.0844     	476420.0444     
 node_36         	256051.0775     	476685.8983     
 node_37         	255579.7270     	476513.2312     
 node_38         	255675.9515     	476546.4054     
 node_39         	255551.0729     	476498.8193     
 node_40         	255821.1790     	476607.0830     
 node_41         	255858.2265     	476424.0759     
 node_42         	255710.2228     	476540.1764     
 node_43         	255778.0298     	476501.9518     
 node_44         	255991.0807     	476434.0019     
 node_45         	255990.2609     	476432.8729     
 node_46         	255950.6239     	476657.4610     
 node_47         	255808.1397     	476621.8343     
 node_48         	255598.5133     	476524.2380     
 node_49         	255705.6499     	476393.3442     
 node_50         	255769.4733     	476471.3482     
 node_51         	255607.4020     	476529.4233     
 node_52         	255831.0171     	476361.7048     
 node_53         	255839.4014     	476372.5860     
 node_54         	255598.6725     	476524.3309     
 node_55         	255802.7615     	476327.1426     
 node_56         	255840.8256     	476463.8030     
 node_57         	256047.3665     	476687.5865     
 node_58         	255817.9793     	476478.4044     
 node_59         	255893.3976     	476462.5998     
 node_60         	255866.9321     	476429.3662     
 node_61         	255789.3100     	476494.2400     
 node_62         	255791.3100     	476494.2400     
 node_63         	255868.2300     	476571.9100     
 node_64         	255870.2300     	476571.9100     
 node_65         	255867.9300     	476571.6000     
 node_66         	255869.9300     	476571.6000     
 node_67         	255995.4149     	476439.9711     
 node_68         	255997.4149     	476439.9711     
 node_69         	255788.9600     	476494.5200     
 node_70         	255790.9600     	476494.5200     
 node_71         	255800.4106     	476324.3607     
 node_72         	255802.4106     	476324.3607     
 pres_0          	256053.2840     	476685.0729     
 node_74         	255867.8951     	476571.8784     
 node_75         	255869.8951     	476571.8784     
 node_76         	255788.9872     	476494.2068     
 node_77         	255790.9872     	476494.2068     
 node_78         	255801.6236     	476325.7507     
 node_79         	255718.5706     	476409.9639     
 node_80         	255789.1350     	476494.3800     
 node_81         	255962.7914     	476382.0055     
 node_82         	255718.3300     	476410.1200     
 node_83         	255720.3300     	476410.1200     
 node_84         	255868.2435     	476571.5738     
 node_85         	255870.2435     	476571.5738     
 node_86         	255868.0800     	476571.7550     
 node_87         	256052.9673     	476685.1372     
 node_88         	256054.9673     	476685.1372     
 node_89         	255789.2854     	476494.5244     
 node_90         	255791.2854     	476494.5244     
 node_91         	255800.0243     	476323.9015     
 node_92         	255802.0243     	476323.9015     

[VERTICES]

[LABELS]

[BACKDROP]

[END]
