[TITLE]
Converted from Epanet to Staci, case name: ferto.spr


[JUNCTIONS]
;ID              	Elev        	Demand      	Pattern         
 node_0          	129.6573    	0.000000    	                	;
 node_1          	124.5462    	0.001667    	                	;
 node_2          	129.7783    	0.000000    	                	;
 node_3          	122.2922    	0.000000    	                	;
 node_4          	116.1293    	0.000000    	                	;
 node_5          	147.9238    	0.000000    	                	;
 node_6          	128.8635    	0.000000    	                	;
 node_7          	130.5685    	0.000000    	                	;
 node_8          	127.1838    	0.000000    	                	;
 node_9          	127.4991    	0.006250    	                	;
 node_10         	125.7458    	0.000833    	                	;
 node_11         	128.5195    	0.000000    	                	;
 node_12         	129.7914    	0.000000    	                	;
 node_13         	124.2855    	0.000000    	                	;
 node_14         	124.5465    	0.002500    	                	;
 node_15         	121.2333    	0.000000    	                	;
 node_16         	119.2355    	0.000000    	                	;
 node_17         	120.0190    	0.000833    	                	;
 node_18         	128.7661    	0.000000    	                	;
 node_19         	131.7839    	0.000000    	                	;
 node_20         	126.3230    	0.022500    	                	;
 node_21         	125.5603    	0.000000    	                	;
 node_22         	127.7144    	0.000000    	                	;
 node_23         	129.4317    	0.000000    	                	;
 node_24         	123.6222    	0.000000    	                	;
 node_25         	124.3461    	0.000000    	                	;
 node_26         	123.6289    	0.002917    	                	;
 node_27         	130.3205    	0.000000    	                	;
 node_28         	127.0862    	0.000000    	                	;
 node_29         	125.6199    	0.000000    	                	;
 node_30         	124.3672    	0.016667    	                	;
 node_31         	127.5410    	0.000000    	                	;
 node_32         	125.0295    	0.000000    	                	;
 node_33         	126.7379    	0.000000    	                	;
 node_34         	117.5857    	0.000000    	                	;
 node_35         	125.2445    	0.000000    	                	;
 node_36         	125.0298    	0.000000    	                	;
 node_37         	123.3979    	0.001667    	                	;
 node_38         	124.7068    	0.004167    	                	;
 node_39         	124.5848    	0.000833    	                	;
 node_40         	126.3419    	0.000833    	                	;
 node_41         	125.3575    	0.007500    	                	;
 node_42         	124.9678    	0.005833    	                	;
 node_43         	124.8812    	0.005000    	                	;
 node_44         	124.3459    	0.006667    	                	;
 node_45         	122.0453    	0.000417    	                	;
 node_46         	121.0718    	0.006250    	                	;
 node_47         	120.2365    	0.000000    	                	;
 node_48         	121.8310    	0.002917    	                	;
 node_49         	118.8861    	0.000000    	                	;
 node_50         	118.1383    	0.000000    	                	;
 node_51         	127.4065    	0.005417    	                	;
 node_52         	138.4765    	0.000833    	                	;
 node_53         	137.9998    	0.000000    	                	;
 node_54         	135.1926    	0.002500    	                	;
 node_55         	133.6976    	0.005000    	                	;
 node_56         	136.7247    	0.006250    	                	;
 node_57         	126.8840    	0.003750    	                	;
 node_58         	125.8017    	0.000000    	                	;
 node_59         	129.5201    	0.000000    	                	;
 node_60         	129.0397    	0.019167    	                	;
 node_61         	128.2122    	0.000000    	                	;
 node_62         	127.4041    	0.000000    	                	;
 node_63         	126.4071    	0.000000    	                	;
 node_64         	127.8543    	0.000000    	                	;
 node_65         	127.7470    	0.000000    	                	;
 node_66         	126.6137    	0.060000    	                	;
 node_67         	119.8821    	0.005417    	                	;
 node_68         	123.7005    	0.005833    	                	;
 node_69         	120.5891    	0.000417    	                	;
 node_70         	123.3296    	0.006250    	                	;
 node_71         	123.0623    	0.001667    	                	;
 node_72         	124.5451    	0.002083    	                	;
 node_73         	120.5554    	0.003750    	                	;
 node_74         	119.3487    	0.000000    	                	;
 node_75         	129.1406    	0.003750    	                	;
 node_76         	124.9975    	0.001250    	                	;
 node_77         	125.0832    	0.001667    	                	;
 node_78         	119.9601    	0.011667    	                	;
 node_79         	123.8605    	0.002083    	                	;
 node_80         	140.9703    	0.000000    	                	;
 node_81         	125.8670    	0.000417    	                	;
 node_82         	137.3416    	0.000417    	                	;
 node_83         	130.8835    	0.001250    	                	;
 node_84         	137.3584    	0.000417    	                	;
 node_85         	126.3226    	0.004583    	                	;
 node_86         	138.5017    	0.000000    	                	;
 node_87         	123.0141    	0.004583    	                	;
 node_88         	121.0968    	0.000000    	                	;
 node_89         	123.8948    	0.000833    	                	;
 node_90         	136.3735    	0.006667    	                	;
 node_91         	132.3675    	0.000833    	                	;
 node_92         	120.5390    	0.000000    	                	;
 node_93         	118.2193    	0.004583    	                	;
 node_94         	118.6259    	0.008333    	                	;
 node_95         	118.3387    	0.001667    	                	;
 node_96         	119.5889    	0.000000    	                	;
 node_97         	121.6015    	0.000417    	                	;
 node_98         	121.2135    	0.000000    	                	;
 node_99         	125.3095    	0.004583    	                	;
 node_100        	124.2360    	0.003333    	                	;
 node_101        	126.0940    	0.001667    	                	;
 node_102        	126.5649    	0.002500    	                	;
 node_103        	128.8810    	0.000833    	                	;
 node_104        	127.2599    	0.008750    	                	;
 node_105        	129.8994    	0.001250    	                	;
 node_106        	126.6633    	0.004167    	                	;
 node_107        	123.1089    	0.004583    	                	;
 node_108        	126.0765    	0.001250    	                	;
 node_109        	124.7597    	0.000000    	                	;
 node_110        	123.4231    	0.000000    	                	;
 node_111        	126.0938    	0.012083    	                	;
 node_112        	122.6971    	0.000000    	                	;
 node_113        	122.1226    	0.001667    	                	;
 node_114        	130.7502    	0.006250    	                	;
 node_115        	127.7932    	0.000000    	                	;
 node_116        	130.8935    	0.000000    	                	;
 node_117        	131.2503    	0.000000    	                	;
 node_118        	127.9416    	0.000000    	                	;
 node_119        	127.5320    	0.000000    	                	;
 node_120        	132.0145    	0.011667    	                	;
 node_121        	127.9947    	0.000000    	                	;
 node_122        	127.7473    	0.002917    	                	;
 node_123        	125.3933    	0.003750    	                	;
 node_124        	128.8160    	0.000833    	                	;
 node_125        	124.9943    	0.000000    	                	;
 node_126        	129.0291    	0.004167    	                	;
 node_127        	123.6433    	0.000000    	                	;
 node_128        	127.0220    	0.004583    	                	;
 node_129        	117.7087    	0.003750    	                	;
 node_130        	116.7680    	0.005000    	                	;
 node_131        	125.4884    	0.000000    	                	;
 node_132        	125.3293    	0.000000    	                	;
 node_133        	124.2054    	0.000000    	                	;
 node_134        	138.2741    	0.000000    	                	;
 node_135        	123.1801    	0.012917    	                	;
 node_136        	124.3174    	0.002917    	                	;
 node_137        	124.6073    	0.000833    	                	;
 node_138        	119.2988    	0.000000    	                	;
 node_139        	124.7826    	0.002917    	                	;
 node_140        	124.5087    	0.010833    	                	;
 node_141        	121.0784    	0.002500    	                	;
 node_142        	127.7592    	0.000000    	                	;
 node_143        	125.0961    	0.000000    	                	;
 node_144        	128.5618    	0.001250    	                	;
 node_145        	124.0893    	0.002500    	                	;
 node_146        	128.5232    	0.000000    	                	;
 node_147        	128.7696    	0.001250    	                	;
 node_148        	128.6403    	0.000000    	                	;
 node_149        	124.9366    	0.001667    	                	;
 node_150        	127.5595    	0.000000    	                	;
 node_151        	129.0827    	0.009167    	                	;
 node_152        	122.6782    	0.000000    	                	;
 node_153        	136.4698    	0.000000    	                	;
 node_154        	124.4445    	0.000417    	                	;
 node_155        	124.4765    	0.077917    	                	;
 node_156        	124.9746    	0.000000    	                	;
 node_157        	124.2642    	0.006250    	                	;
 node_158        	125.3922    	0.000000    	                	;
 node_159        	124.3163    	0.000000    	                	;
 node_160        	126.2197    	0.002917    	                	;
 node_161        	125.9419    	0.000000    	                	;
 node_162        	129.3453    	0.001250    	                	;
 node_163        	128.2441    	0.000000    	                	;
 node_164        	125.0402    	0.006250    	                	;
 node_165        	126.2293    	0.006250    	                	;
 node_166        	131.1310    	0.000000    	                	;
 node_167        	133.8433    	0.001250    	                	;
 node_168        	127.6066    	0.000417    	                	;
 node_169        	126.8220    	0.000000    	                	;
 node_170        	127.2638    	0.000000    	                	;
 node_171        	124.5568    	0.000417    	                	;
 node_172        	119.7648    	0.000000    	                	;
 node_173        	121.8414    	0.001667    	                	;
 node_174        	125.6036    	0.000000    	                	;
 node_175        	125.4050    	0.003333    	                	;
 node_176        	117.1084    	0.003750    	                	;
 node_177        	140.6951    	0.004583    	                	;
 node_178        	123.8794    	0.000000    	                	;
 node_179        	126.8879    	0.002500    	                	;
 node_180        	123.3570    	0.000000    	                	;
 node_181        	135.5829    	0.000000    	                	;
 node_182        	126.9645    	0.000000    	                	;
 node_183        	132.7799    	0.000000    	                	;
 node_184        	135.6862    	0.000000    	                	;
 node_185        	121.7792    	0.000000    	                	;
 node_186        	134.3151    	0.000000    	                	;
 node_187        	125.0065    	0.003333    	                	;
 node_188        	125.2742    	0.005833    	                	;
 node_189        	124.5935    	0.004583    	                	;
 node_190        	120.7756    	0.000000    	                	;
 node_191        	119.7439    	0.001250    	                	;
 node_192        	130.4233    	0.001667    	                	;
 node_193        	138.6029    	0.000000    	                	;
 node_194        	137.0281    	0.000000    	                	;
 node_195        	131.4467    	0.000000    	                	;
 node_196        	128.7271    	0.002500    	                	;
 node_197        	139.4806    	0.004583    	                	;
 node_198        	121.3348    	0.000000    	                	;
 node_199        	121.2086    	0.000000    	                	;
 node_200        	126.0063    	0.003333    	                	;
 node_201        	129.4005    	0.005000    	                	;
 node_202        	128.5558    	0.003333    	                	;
 node_203        	123.0851    	0.004167    	                	;
 node_204        	123.7373    	0.006667    	                	;
 node_205        	131.8004    	0.000000    	                	;
 node_206        	138.1691    	0.002500    	                	;
 node_207        	126.5421    	0.000833    	                	;
 node_208        	126.2169    	0.010417    	                	;
 node_209        	119.4689    	0.004583    	                	;
 node_210        	118.9527    	0.005833    	                	;
 node_211        	121.2729    	0.000833    	                	;
 node_212        	122.7755    	0.002917    	                	;
 node_213        	126.1054    	0.000000    	                	;
 node_214        	128.5650    	0.007500    	                	;
 node_215        	129.1371    	0.003750    	                	;
 node_216        	128.6740    	0.003750    	                	;
 node_217        	125.4876    	0.004583    	                	;
 node_218        	128.1155    	0.004583    	                	;
 node_219        	122.0716    	0.000000    	                	;
 node_220        	128.0654    	0.000000    	                	;
 node_221        	134.3620    	0.000000    	                	;
 node_222        	129.0069    	0.002917    	                	;
 node_223        	124.9828    	0.000000    	                	;
 node_224        	127.9200    	0.000833    	                	;
 node_225        	132.9393    	0.000000    	                	;
 node_226        	124.3733    	0.591667    	                	;
 node_227        	138.0264    	0.000000    	                	;
 node_228        	120.6021    	0.001667    	                	;
 node_229        	124.7142    	0.002917    	                	;
 node_230        	125.1629    	0.000000    	                	;
 node_231        	126.7536    	0.000000    	                	;
 node_232        	128.6745    	0.000417    	                	;
 node_233        	128.7093    	0.000000    	                	;
 node_234        	118.8153    	0.005833    	                	;
 node_235        	119.3260    	0.000417    	                	;
 node_236        	138.7758    	0.000000    	                	;
 node_237        	121.7983    	0.000000    	                	;
 node_238        	122.7610    	0.000000    	                	;
 node_239        	124.9231    	0.003333    	                	;
 node_240        	126.0648    	0.002083    	                	;
 node_241        	130.0737    	0.001667    	                	;
 node_242        	125.5878    	0.000000    	                	;
 node_243        	119.1651    	0.002500    	                	;
 node_244        	127.4744    	0.002917    	                	;
 node_245        	135.5441    	0.000000    	                	;
 node_246        	123.5247    	0.000000    	                	;
 node_247        	135.3545    	0.000000    	                	;
 node_248        	123.4972    	0.003750    	                	;
 node_249        	129.4844    	0.000000    	                	;
 node_250        	128.5702    	0.000000    	                	;
 node_251        	127.2178    	0.000833    	                	;
 node_252        	127.5634    	0.000000    	                	;
 node_253        	123.6724    	0.000000    	                	;
 node_254        	127.0375    	0.001250    	                	;
 node_255        	122.6532    	0.000000    	                	;
 node_256        	125.9567    	0.002083    	                	;
 node_257        	121.3751    	0.005000    	                	;
 node_258        	125.3404    	0.001250    	                	;
 node_259        	121.7034    	0.000000    	                	;
 node_260        	118.8457    	0.000000    	                	;
 node_261        	119.0832    	0.000000    	                	;
 node_262        	129.0121    	0.000417    	                	;
 node_263        	125.0291    	0.004583    	                	;
 node_264        	129.4077    	0.000000    	                	;
 node_265        	120.6984    	0.000417    	                	;
 node_266        	135.0927    	0.000000    	                	;
 node_267        	124.2725    	0.002500    	                	;
 node_268        	140.2998    	0.003333    	                	;
 node_269        	134.3529    	0.000000    	                	;
 node_270        	119.0906    	0.000833    	                	;
 node_271        	126.1618    	0.005000    	                	;
 node_272        	124.1736    	0.001667    	                	;
 node_273        	122.8620    	0.006250    	                	;
 node_274        	125.9099    	0.004583    	                	;
 node_275        	126.0847    	0.000833    	                	;
 node_276        	125.3972    	0.002917    	                	;
 node_277        	134.6785    	0.000000    	                	;
 node_278        	136.6751    	0.000000    	                	;
 node_279        	136.5168    	0.000000    	                	;
 node_280        	136.7520    	0.000000    	                	;
 node_281        	130.1277    	0.000000    	                	;
 node_282        	128.5103    	0.000833    	                	;
 node_283        	127.3236    	0.004583    	                	;
 node_284        	128.0356    	0.000000    	                	;
 node_285        	124.9168    	0.005000    	                	;
 node_286        	131.5448    	0.000833    	                	;
 node_287        	139.3023    	0.000000    	                	;
 node_288        	127.1519    	0.006667    	                	;
 node_289        	128.2217    	0.000000    	                	;
 node_290        	144.8846    	0.000000    	                	;
 node_291        	133.7236    	0.003333    	                	;
 node_292        	122.0192    	0.001250    	                	;
 node_293        	128.1713    	0.000000    	                	;
 node_294        	136.0455    	0.000000    	                	;
 node_295        	129.2733    	0.003750    	                	;
 node_296        	126.5667    	0.004583    	                	;
 node_297        	126.8213    	0.005000    	                	;
 node_298        	121.9553    	0.000000    	                	;
 node_299        	123.7864    	0.000000    	                	;
 node_300        	124.4509    	0.006667    	                	;
 node_301        	128.6217    	0.000833    	                	;
 node_302        	125.6873    	0.000000    	                	;
 node_303        	127.9168    	0.000833    	                	;
 node_304        	133.2481    	0.000000    	                	;
 node_305        	124.8299    	0.000000    	                	;
 node_306        	126.5986    	0.000000    	                	;
 node_307        	126.9323    	0.001667    	                	;
 node_308        	125.7585    	0.000000    	                	;
 node_309        	125.8931    	0.000417    	                	;
 node_310        	127.6037    	0.000000    	                	;
 node_311        	132.2598    	0.000000    	                	;
 node_312        	126.8628    	0.000000    	                	;
 node_313        	134.7213    	0.000000    	                	;
 node_314        	134.8670    	0.001250    	                	;
 node_315        	125.4273    	0.000000    	                	;
 node_316        	124.3199    	0.005417    	                	;
 node_317        	124.4779    	0.006250    	                	;
 node_318        	124.3839    	0.004583    	                	;
 node_319        	121.7421    	0.005000    	                	;
 node_320        	120.9250    	0.004583    	                	;
 node_321        	121.3807    	0.000000    	                	;
 node_322        	122.9912    	0.000000    	                	;
 node_323        	119.4031    	0.000000    	                	;
 node_324        	126.9684    	0.000000    	                	;
 node_325        	127.7519    	0.007917    	                	;
 node_326        	127.8923    	0.004167    	                	;
 node_327        	133.9616    	0.005000    	                	;
 node_328        	127.6710    	0.001250    	                	;
 node_329        	126.0622    	0.002500    	                	;
 node_330        	125.6786    	0.000000    	                	;
 node_331        	126.8675    	0.000833    	                	;
 node_332        	145.2937    	0.000000    	                	;
 node_333        	119.9026    	0.000000    	                	;
 node_334        	124.3391    	0.005000    	                	;
 node_335        	123.9754    	0.011250    	                	;
 node_336        	140.5962    	0.000000    	                	;
 node_337        	130.9392    	0.001667    	                	;
 node_338        	121.2886    	0.000000    	                	;
 node_339        	126.7735    	0.000417    	                	;
 node_340        	121.5931    	0.000833    	                	;
 node_341        	120.7101    	0.003750    	                	;
 node_342        	118.7046    	0.003750    	                	;
 node_343        	118.6592    	0.000833    	                	;
 node_344        	121.2656    	0.000000    	                	;
 node_345        	119.2361    	0.000000    	                	;
 node_346        	128.3061    	0.001667    	                	;
 node_347        	123.1816    	0.002917    	                	;
 node_348        	123.3297    	0.000833    	                	;
 node_349        	122.9999    	0.005417    	                	;
 node_350        	126.7289    	0.000833    	                	;
 node_351        	129.0673    	0.042083    	                	;
 node_352        	127.7720    	0.000000    	                	;
 node_353        	131.5390    	0.035000    	                	;
 node_354        	132.4288    	0.003333    	                	;
 node_355        	127.9959    	0.003333    	                	;
 node_356        	128.0913    	0.003750    	                	;
 node_357        	127.3520    	0.002500    	                	;
 node_358        	126.6271    	0.003750    	                	;
 node_359        	127.5647    	0.003750    	                	;
 node_360        	126.3540    	0.000000    	                	;
 node_361        	125.3533    	0.000000    	                	;
 node_362        	121.5093    	0.000000    	                	;
 node_363        	136.5675    	0.006667    	                	;
 node_364        	124.7228    	0.007083    	                	;
 node_365        	121.2693    	0.007500    	                	;
 node_366        	120.1582    	0.002500    	                	;
 node_367        	136.5107    	0.000417    	                	;
 node_368        	139.8910    	0.001250    	                	;
 node_369        	126.9499    	0.005417    	                	;
 node_370        	124.3573    	0.002083    	                	;
 node_371        	125.4339    	0.003333    	                	;
 node_372        	126.0422    	0.000000    	                	;
 node_373        	122.0488    	0.003750    	                	;
 node_374        	115.7941    	0.000000    	                	;
 node_375        	133.6931    	0.005000    	                	;
 node_376        	124.4230    	0.001667    	                	;
 node_377        	123.5767    	0.002083    	                	;
 node_378        	130.0054    	0.000000    	                	;
 node_379        	130.8669    	0.000000    	                	;
 node_380        	125.7526    	0.000000    	                	;
 node_381        	129.0649    	0.001667    	                	;
 node_382        	128.5689    	0.000000    	                	;
 node_383        	119.3192    	0.000000    	                	;
 node_384        	134.4420    	0.000000    	                	;
 node_385        	119.1067    	0.005417    	                	;
 node_386        	125.4178    	0.000000    	                	;
 node_387        	121.4476    	0.000000    	                	;
 node_388        	124.6920    	0.002500    	                	;
 node_389        	131.9937    	0.000000    	                	;
 node_390        	136.4785    	0.000000    	                	;
 node_391        	129.4675    	0.019167    	                	;
 node_392        	135.8315    	0.000000    	                	;
 node_393        	135.4630    	0.000000    	                	;
 node_394        	117.5269    	0.000000    	                	;
 node_395        	126.1132    	0.000000    	                	;
 node_396        	126.6145    	0.000000    	                	;
 node_397        	130.2718    	0.000000    	                	;
 node_398        	123.0101    	0.005000    	                	;
 node_399        	122.6834    	0.006250    	                	;
 node_400        	123.8725    	0.000417    	                	;
 node_401        	123.9964    	0.002083    	                	;
 node_402        	124.1093    	0.001667    	                	;
 node_403        	118.2992    	0.000000    	                	;
 node_404        	138.6573    	0.002917    	                	;
 node_405        	138.9364    	0.001667    	                	;
 node_406        	130.1292    	0.002500    	                	;
 node_407        	133.1123    	0.000000    	                	;
 node_408        	124.3764    	0.002500    	                	;
 node_409        	120.6312    	0.011250    	                	;
 node_410        	124.4529    	0.005000    	                	;
 node_411        	124.6789    	0.002917    	                	;
 node_412        	140.1880    	0.001667    	                	;
 node_413        	125.8906    	0.000000    	                	;
 node_414        	138.4019    	0.001667    	                	;
 node_415        	126.8739    	0.000000    	                	;
 node_416        	119.8525    	0.000000    	                	;
 node_417        	127.0202    	0.004583    	                	;
 node_418        	127.7380    	0.000000    	                	;
 node_419        	127.1432    	0.000000    	                	;
 node_420        	129.8602    	0.001250    	                	;
 node_421        	129.5130    	0.000000    	                	;
 node_422        	125.0132    	0.000000    	                	;
 node_423        	131.8684    	0.000000    	                	;
 node_424        	125.5049    	0.000417    	                	;
 node_425        	127.1356    	0.000000    	                	;
 node_426        	129.0352    	0.005833    	                	;
 node_427        	126.8796    	0.000000    	                	;
 node_428        	128.1914    	0.000000    	                	;
 node_429        	125.4232    	0.004583    	                	;
 node_430        	124.9988    	0.027083    	                	;
 node_431        	124.6501    	0.000000    	                	;
 node_432        	134.3821    	0.000000    	                	;
 node_433        	119.9303    	0.000833    	                	;
 node_434        	123.0181    	0.001250    	                	;
 node_435        	124.8362    	0.000000    	                	;
 node_436        	125.4315    	0.000000    	                	;
 node_437        	119.0313    	0.000000    	                	;
 node_438        	125.4663    	0.002917    	                	;
 node_439        	126.4849    	0.000000    	                	;
 node_440        	125.6023    	0.000000    	                	;
 node_441        	124.7149    	0.000000    	                	;
 node_442        	135.7895    	0.000000    	                	;
 node_443        	129.5087    	0.000000    	                	;
 node_444        	132.4498    	0.007917    	                	;
 node_445        	127.1646    	0.042917    	                	;
 node_446        	126.4666    	0.000000    	                	;
 node_447        	127.9804    	0.000000    	                	;
 node_448        	119.5310    	0.000833    	                	;
 node_449        	120.7662    	0.001250    	                	;
 node_450        	126.6907    	0.000000    	                	;
 node_451        	126.8311    	0.000000    	                	;
 node_452        	123.6645    	0.000000    	                	;
 node_453        	125.2114    	0.000000    	                	;
 node_454        	124.6876    	0.026667    	                	;
 node_455        	136.1740    	0.015833    	                	;
 node_456        	127.7032    	0.000000    	                	;
 node_457        	135.0951    	0.000000    	                	;
 node_458        	116.2282    	0.000000    	                	;
 node_459        	116.1909    	0.000000    	                	;
 node_460        	128.5468    	0.003750    	                	;
 node_461        	124.2650    	0.000000    	                	;
 node_462        	138.7844    	0.000000    	                	;
 node_463        	131.4032    	0.000000    	                	;
 node_464        	127.0930    	0.000000    	                	;
 node_465        	124.9734    	0.007083    	                	;
 node_466        	124.0100    	0.002917    	                	;
 node_467        	126.8794    	0.004167    	                	;
 node_468        	129.3857    	0.000000    	                	;
 node_469        	129.2969    	0.001250    	                	;
 node_470        	119.8537    	0.000417    	                	;
 node_471        	124.8081    	0.005833    	                	;
 node_472        	119.5361    	0.000000    	                	;
 node_473        	124.0255    	0.004167    	                	;