[TITLE]
Converted from Epanet to Staci, case name: jerevan.spr


[JUNCTIONS]
;ID              	Elev        	Demand      	Pattern         
 node_0          	223.1816    	0.000000    	                	;
 node_1          	221.1124    	0.083913    	                	;
 node_2          	221.6996    	0.059821    	                	;
 node_3          	217.9142    	0.067671    	                	;
 node_4          	219.0387    	0.000000    	                	;
 node_5          	216.6549    	0.002983    	                	;
 node_6          	218.9953    	0.006192    	                	;
 node_7          	221.2352    	0.089262    	                	;
 node_8          	218.8541    	0.256163    	                	;
 node_9          	217.8743    	0.075954    	                	;
 node_10         	217.9279    	0.000000    	                	;
 node_11         	219.3061    	0.000000    	                	;
 node_12         	223.3649    	0.060575    	                	;
 node_13         	222.1802    	0.066079    	                	;
 node_14         	219.3470    	0.069383    	                	;
 node_15         	218.7933    	0.102746    	                	;
 node_16         	219.9852    	0.088313    	                	;
 node_17         	221.1137    	0.000000    	                	;
 node_18         	222.5262    	0.000000    	                	;
 node_19         	219.9645    	0.000000    	                	;
 node_20         	216.6876    	0.097867    	                	;
 node_21         	222.4180    	0.155075    	                	;
 node_22         	221.5489    	0.079779    	                	;
 node_23         	221.3139    	0.000000    	                	;
 node_24         	219.6203    	0.000000    	                	;
 node_25         	219.5306    	0.000000    	                	;
 node_26         	221.4657    	0.094875    	                	;
 node_27         	220.6839    	0.139942    	                	;
 node_28         	221.9563    	0.000000    	                	;
 node_29         	217.8678    	0.000000    	                	;
 node_30         	219.8814    	0.057329    	                	;
 node_31         	219.2754    	0.001600    	                	;
 node_32         	221.4610    	0.000000    	                	;
 node_33         	221.3963    	0.000000    	                	;
 node_34         	219.3998    	0.000000    	                	;
 node_35         	219.3718    	0.000000    	                	;
 node_36         	220.3736    	0.000000    	                	;
 node_37         	219.2506    	0.000000    	                	;
 node_38         	220.9653    	0.000000    	                	;
 node_39         	217.8675    	0.000000    	                	;
 node_40         	217.8269    	0.000000    	                	;
 node_41         	219.3963    	0.000000    	                	;
 node_42         	217.8954    	0.000000    	                	;
 node_43         	217.8628    	0.000000    	                	;
 node_44         	215.0729    	0.000000    	                	;
 node_45         	220.9730    	0.000000    	                	;
 node_46         	220.8997    	0.000000    	                	;
 node_47         	220.8580    	0.000000    	                	;
 node_48         	215.0768    	0.000000    	                	;
 node_49         	215.0798    	0.000000    	                	;
 node_50         	219.5100    	0.000000    	                	;
 node_51         	219.4366    	0.000000    	                	;
 node_52         	220.3683    	0.000000    	                	;
 node_53         	221.3383    	0.000000    	                	;
 node_54         	221.3116    	0.000000    	                	;
 node_55         	215.0838    	0.000000    	                	;
 node_56         	220.8569    	0.000000    	                	;
 node_57         	217.8684    	0.000000    	                	;
 node_58         	221.3397    	0.000000    	                	;
 node_59         	221.4700    	0.000000    	                	;
 node_60         	216.7134    	0.000000    	                	;
 node_61         	222.5712    	0.000000    	                	;
 node_62         	222.5146    	0.000000    	                	;
 node_63         	219.9758    	0.000000    	                	;
 node_64         	219.9544    	0.000000    	                	;
 node_65         	215.5518    	0.000000    	                	;
 node_67         	216.2329    	0.000000    	                	;
 node_68         	219.0420    	0.000000    	                	;
 node_69         	220.7418    	0.000000    	                	;
 node_70         	220.7038    	0.000000    	                	;
 node_71         	217.9063    	0.000000    	                	;
 node_72         	217.8736    	0.000000    	                	;
 node_73         	219.3573    	0.000000    	                	;
 node_74         	222.5741    	0.000000    	                	;
 node_75         	219.5044    	0.000000    	                	;
 node_76         	219.4311    	0.000000    	                	;
 node_77         	220.9525    	0.000000    	                	;
 node_78         	220.8792    	0.000000    	                	;
 node_79         	219.9890    	0.000000    	                	;
 node_80         	219.9676    	0.000000    	                	;
 node_81         	217.8966    	0.000000    	                	;
 node_82         	219.2561    	0.000000    	                	;
 node_83         	219.2187    	0.000000    	                	;
 node_84         	218.8664    	0.000000    	                	;
 node_85         	218.8651    	0.000000    	                	;
 node_86         	220.7464    	0.000000    	                	;
 node_87         	219.2452    	0.000000    	                	;
 node_88         	219.2017    	0.000000    	                	;
 node_89         	219.5072    	0.000000    	                	;
 node_90         	222.5765    	0.000000    	                	;
 node_91         	222.5185    	0.000000    	                	;
 node_92         	218.8683    	0.000000    	                	;
 node_93         	219.3903    	0.000000    	                	;
 node_94         	219.3630    	0.000000    	                	;

[RESERVOIRS]
;ID              	Head        	Pattern         
 pres_0          	273.3092    	                

[TANKS]
;ID             	Elevation   	InitLevel   	MinLevel    	MaxLevel    	Diameter    	MinVol      	VolCurve

[PIPES]
;ID             	Node1           	Node2           	Length      	Diameter    	Roughness   	MinorLoss   	Status
 pipe_0          	node_44         	node_65         	49.5473     	250.0000    	-0.0200     	0.0000      	Open  ;
 pipe_1          	node_57         	node_60         	138.0502    	250.0000    	-0.0200     	0.0000      	Open  ;
 pipe_2          	node_26         	node_59         	1.6512      	100.0000    	-0.0200     	0.0000      	Open  ;
 pipe_3          	node_89         	node_68         	21.8271     	250.0000    	-0.0200     	0.0000      	Open  ;
 pipe_4          	node_27         	node_36         	33.7349     	100.0000    	-0.0200     	0.0000      	Open  ;
 pipe_5          	node_68         	node_6          	1.0848      	250.0000    	-0.0200     	0.0000      	Open  ;
 pipe_6          	node_6          	node_57         	44.9221     	250.0000    	-0.0200     	0.0000      	Open  ;
 pipe_7          	node_60         	node_20         	10.0896     	250.0000    	-0.0200     	0.0000      	Open  ;
 pipe_8          	node_41         	node_30         	61.6937     	110.0000    	-0.0200     	0.0000      	Open  ;
 pipe_9          	node_92         	node_4          	16.3017     	110.0000    	-0.0200     	0.0000      	Open  ;
 pipe_10         	node_92         	node_3          	110.2580    	110.0000    	-0.0200     	0.0000      	Open  ;
 pipe_11         	node_3          	node_10         	17.3274     	110.0000    	-0.0200     	0.0000      	Open  ;
 pipe_12         	node_10         	node_29         	37.7219     	110.0000    	-0.0200     	0.0000      	Open  ;
 pipe_13         	node_29         	node_9          	3.0656      	110.0000    	-0.0200     	0.0000      	Open  ;
 pipe_14         	node_2          	node_38         	24.1798     	100.0000    	-0.0200     	0.0000      	Open  ;
 pipe_15         	node_28         	node_2          	16.3232     	100.0000    	-0.0200     	0.0000      	Open  ;
 pipe_16         	node_18         	node_28         	59.0246     	100.0000    	-0.0200     	0.0000      	Open  ;
 pipe_17         	node_15         	node_8          	6.6635      	90.0000     	-0.0200     	0.0000      	Open  ;
 pipe_18         	node_24         	node_73         	69.9315     	250.0000    	-0.0200     	0.0000      	Open  ;
 pipe_19         	node_1          	node_47         	29.3002     	100.0000    	-0.0200     	0.0000      	Open  ;
 pipe_20         	node_17         	node_1          	0.2001      	100.0000    	-0.0200     	0.0000      	Open  ;
 pipe_21         	node_7          	node_17         	20.6004     	100.0000    	-0.0200     	0.0000      	Open  ;
 pipe_22         	node_23         	node_7          	10.7000     	100.0000    	-0.0200     	0.0000      	Open  ;
 pipe_23         	node_59         	node_22         	38.7470     	100.0000    	-0.0200     	0.0000      	Open  ;
 pipe_24         	node_22         	node_58         	45.6381     	100.0000    	-0.0200     	0.0000      	Open  ;
 pipe_25         	node_74         	node_0          	33.3703     	90.0000     	-0.0200     	0.0000      	Open  ;
 pipe_26         	node_0          	node_12         	15.5241     	90.0000     	-0.0200     	0.0000      	Open  ;
 pipe_27         	node_13         	node_21         	9.0001      	90.0000     	-0.0200     	0.0000      	Open  ;
 pipe_28         	node_21         	node_74         	10.9001     	90.0000     	-0.0200     	0.0000      	Open  ;
 pipe_29         	node_14         	node_31         	4.2349      	90.0000     	-0.0200     	0.0000      	Open  ;
 pipe_30         	node_31         	node_11         	2.7761      	90.0000     	-0.0200     	0.0000      	Open  ;
 pipe_31         	node_25         	node_24         	98.4543     	250.0000    	-0.0200     	0.0000      	Open  ;
 pipe_32         	node_30         	node_19         	12.4991     	110.0000    	-0.0200     	0.0000      	Open  ;
 pipe_33         	node_20         	node_5          	12.9185     	250.0000    	-0.0200     	0.0000      	Open  ;
 pipe_34         	node_5          	node_65         	52.1003     	250.0000    	-0.0200     	0.0000      	Open  ;
 pipe_35         	node_58         	node_54         	0.1925      	100.0000    	-0.0200     	0.0000      	Open  ;
 pipe_36         	node_53         	node_23         	3.3075      	100.0000    	-0.0200     	0.0000      	Open  ;
 pipe_37         	node_86         	node_91         	134.8886    	110.0000    	-0.0200     	0.0000      	Open  ;
 pipe_38         	node_90         	node_74         	0.2763      	110.0000    	-0.0200     	0.0000      	Open  ;
 pipe_39         	node_74         	node_62         	0.3068      	100.0000    	-0.0200     	0.0000      	Open  ;
 pipe_40         	node_61         	node_18         	9.8125      	100.0000    	-0.0200     	0.0000      	Open  ;
 pipe_41         	node_47         	node_56         	0.1298      	100.0000    	-0.0200     	0.0000      	Open  ;
 pipe_42         	node_56         	node_27         	14.1681     	100.0000    	-0.0200     	0.0000      	Open  ;
 pipe_43         	node_38         	node_78         	0.4225      	110.0000    	-0.0200     	0.0000      	Open  ;
 pipe_44         	node_38         	node_46         	0.2606      	100.0000    	-0.0200     	0.0000      	Open  ;
 pipe_45         	node_19         	node_70         	92.5714     	110.0000    	-0.0200     	0.0000      	Open  ;
 pipe_46         	node_69         	node_86         	0.2657      	110.0000    	-0.0200     	0.0000      	Open  ;
 pipe_47         	node_52         	node_36         	1.1008      	150.0000    	-0.0200     	0.0000      	Open  ;
 pipe_48         	node_73         	node_64         	31.7041     	110.0000    	-0.0200     	0.0000      	Open  ;
 pipe_49         	node_63         	node_16         	0.5000      	110.0000    	-0.0200     	0.0000      	Open  ;
 pipe_50         	node_16         	node_80         	0.2000      	150.0000    	-0.0200     	0.0000      	Open  ;
 pipe_51         	node_79         	node_52         	21.2031     	150.0000    	-0.0200     	0.0000      	Open  ;
 pipe_52         	node_44         	node_49         	0.8701      	200.0000    	-0.0200     	0.0000      	Open  ;
 pipe_53         	node_48         	node_55         	1.5132      	200.0000    	-0.0200     	0.0000      	Open  ;
 pipe_54         	node_81         	node_40         	63.8634     	110.0000    	-0.0200     	0.0000      	Open  ;
 pipe_55         	node_39         	node_57         	0.3000      	110.0000    	-0.0200     	0.0000      	Open  ;
 pipe_56         	node_89         	node_51         	0.3755      	250.0000    	-0.0200     	0.0000      	Open  ;
 pipe_57         	node_50         	node_25         	2.9005      	250.0000    	-0.0200     	0.0000      	Open  ;
 pipe_58         	node_37         	node_76         	59.8585     	250.0000    	-0.0200     	0.0000      	Open  ;
 pipe_59         	node_75         	node_89         	0.3755      	250.0000    	-0.0200     	0.0000      	Open  ;
 pipe_60         	node_45         	node_33         	48.4016     	100.0000    	-0.0200     	0.0000      	Open  ;
 pipe_61         	node_32         	node_26         	0.5760      	100.0000    	-0.0200     	0.0000      	Open  ;
 pipe_62         	node_9          	node_43         	9.9318      	110.0000    	-0.0200     	0.0000      	Open  ;
 pipe_63         	node_42         	node_81         	0.4728      	110.0000    	-0.0200     	0.0000      	Open  ;
 pipe_64         	node_72         	node_81         	0.5141      	110.0000    	-0.0200     	0.0000      	Open  ;
 pipe_65         	node_37         	node_88         	0.3500      	110.0000    	-0.0200     	0.0000      	Open  ;
 pipe_66         	node_87         	node_71         	68.9980     	110.0000    	-0.0200     	0.0000      	Open  ;
 pipe_67         	node_77         	node_83         	48.7840     	110.0000    	-0.0200     	0.0000      	Open  ;
 pipe_68         	node_82         	node_37         	0.3500      	110.0000    	-0.0200     	0.0000      	Open  ;
 pipe_69         	node_92         	node_85         	0.4638      	90.0000     	-0.0200     	0.0000      	Open  ;
 pipe_70         	node_84         	node_15         	30.1688     	90.0000     	-0.0200     	0.0000      	Open  ;
 pipe_71         	node_41         	node_35         	0.4060      	90.0000     	-0.0200     	0.0000      	Open  ;
 pipe_72         	node_34         	node_14         	15.9354     	90.0000     	-0.0200     	0.0000      	Open  ;
 pipe_73         	node_4          	node_94         	41.9163     	110.0000    	-0.0200     	0.0000      	Open  ;
 pipe_74         	node_93         	node_41         	0.4001      	110.0000    	-0.0200     	0.0000      	Open  ;
 pipe_75         	node_67         	node_55         	80.5550     	200.0000    	-0.0200     	0.0000      	Open  ;
 pipe_76         	pres_0          	node_67         	1.9113      	200.0000    	-0.0200     	0.0000      	Open  ;

[PUMPS]
;ID             	Node1           	Node2           	Parameters

[VALVES]
;ID             	Node1           	Node2           	Diameter    	Type	Setting     	MinorLoss   
 valve_0         	node_34         	node_35         	100.0000    	ISO 	0.0000      	0.0000      
 valve_1         	node_93         	node_94         	100.0000    	ISO 	0.0000      	0.0000      
 valve_2         	node_75         	node_76         	100.0000    	ISO 	0.0000      	0.0000      
 valve_3         	node_77         	node_78         	100.0000    	ISO 	0.0000      	0.0000      
 valve_4         	node_84         	node_85         	100.0000    	ISO 	0.0000      	0.0000      
 valve_5         	node_42         	node_43         	100.0000    	ISO 	0.0000      	0.0000      
 valve_6         	node_69         	node_70         	100.0000    	ISO 	0.0000      	0.0000      
 valve_7         	node_32         	node_33         	100.0000    	ISO 	0.0000      	0.0000      
 valve_8         	node_71         	node_72         	100.0000    	ISO 	0.0000      	0.0000      
 valve_9         	node_53         	node_54         	100.0000    	ISO 	0.0000      	0.0000      
 valve_10        	node_87         	node_88         	100.0000    	ISO 	0.0000      	0.0000      
 valve_11        	node_48         	node_49         	100.0000    	ISO 	0.0000      	0.0000      
 valve_12        	node_82         	node_83         	100.0000    	ISO 	0.0000      	0.0000      
 valve_13        	node_63         	node_64         	100.0000    	ISO 	0.0000      	0.0000      
 valve_14        	node_39         	node_40         	100.0000    	ISO 	0.0000      	0.0000      
 valve_15        	node_79         	node_80         	100.0000    	ISO 	0.0000      	0.0000      
 valve_16        	node_61         	node_62         	100.0000    	ISO 	0.0000      	0.0000      
 valve_17        	node_50         	node_51         	100.0000    	ISO 	0.0000      	0.0000      
 valve_18        	node_90         	node_91         	100.0000    	ISO 	0.0000      	0.0000      
 valve_19        	node_45         	node_46         	100.0000    	ISO 	0.0000      	0.0000      

[TAGS]

[DEMANDS]
;Junction       	Demand      	Pattern         	Category

[STATUS]
;ID              	Status/Setting

[PATTERNS]
;ID             	Multipliers

[CURVES]
;ID             	X-Value     	Y-Value

[CONTROLS]

[RULES]

[ENERGY]

[EMITTERS]

[QUALITY]

[SOURCES]

[REACTIONS]

[MIXING]

[TIMES]

[REPORT]

[OPTIONS]
 Units              	LPS
 Headloss           	D-W
 Specific Gravity   	1.0
 Viscosity          	1.0
 Trials             	40
 Accuracy           	0.001
 CHECKFREQ          	2
 MAXCHECK           	10
 DAMPLIMIT          	0
 Unbalanced         	Continue 10
 Pattern            	1
 Demand Multiplier  	1.0
 Emitter Exponent   	0.5
 Quality            	Chlorine mg/L
 Diffusivity        	1.0
 Tolerance          	0.01

[COORDINATES]
;Node           	X-Coord         	Y-Coord
 node_0          	263847.6869     	464378.6892     
 node_1          	263818.6039     	464597.8339     
 node_2          	263912.5945     	464442.6974     
 node_3          	264056.5210     	464478.4473     
 node_4          	264075.4908     	464359.1169     
 node_5          	264110.3724     	464680.1955     
 node_6          	263943.1879     	464560.0954     
 node_7          	263830.3988     	464580.7010     
 node_8          	264047.4668     	464388.1310     
 node_9          	264024.3012     	464526.7655     
 node_10         	264047.6674     	464493.3420     
 node_11         	264037.0650     	464331.2454     
 node_12         	263833.6150     	464385.2450     
 node_13         	263895.9897     	464356.2260     
 node_14         	264043.3092     	464328.0575     
 node_15         	264053.6391     	464385.6200     
 node_16         	263800.2284     	464673.0532     
 node_17         	263818.7125     	464597.6659     
 node_18         	263882.3677     	464373.6942     
 node_19         	264028.1311     	464252.6720     
 node_20         	264099.9165     	464672.6085     
 node_21         	263887.8246     	464360.0119     
 node_22         	263864.3438     	464531.4228     
 node_23         	263836.4687     	464571.8893     
 node_24         	263866.9293     	464629.7838     
 node_25         	263923.0820     	464548.9128     
 node_26         	263887.2609     	464498.1539     
 node_27         	263801.0867     	464633.1956     
 node_28         	263905.8969     	464427.8115     
 node_29         	264026.1165     	464524.2951     
 node_30         	264033.1449     	464264.1214     
 node_31         	264039.5375     	464329.9831     
 node_32         	263887.6539     	464497.7327     
 node_33         	263889.6539     	464497.7327     
 node_34         	264057.5020     	464320.8114     
 node_35         	264059.5020     	464320.8114     
 node_36         	263781.4624     	464660.6352     
 node_37         	263959.6603     	464496.9942     
 node_38         	263922.5157     	464464.7481     
 node_39         	263979.6527     	464586.1040     
 node_40         	263981.6527     	464586.1040     
 node_41         	264057.8714     	464320.6431     
 node_42         	264018.4202     	464534.7689     
 node_43         	264020.4202     	464534.7689     
 node_44         	264197.0548     	464728.5924     
 node_45         	263922.2684     	464464.8302     
 node_46         	263924.2684     	464464.8302     
 node_47         	263802.6843     	464622.4320     
 node_48         	264197.7632     	464729.0975     
 node_49         	264199.7632     	464729.0975     
 node_50         	263924.7363     	464546.5303     
 node_51         	263926.7363     	464546.5303     
 node_52         	263782.3715     	464661.2558     
 node_53         	263838.3450     	464569.1654     
 node_54         	263840.3450     	464569.1654     
 node_55         	264198.9953     	464729.9760     
 node_56         	263802.6138     	464622.5410     
 node_57         	263979.4808     	464586.3499     
 node_58         	263838.4542     	464569.0069     
 node_59         	263886.3243     	464499.5137     
 node_60         	264091.7503     	464666.6830     
 node_61         	263878.0701     	464364.8729     
 node_62         	263880.0701     	464364.8729     
 node_63         	263800.6400     	464673.3370     
 node_64         	263802.6400     	464673.3370     
 node_65         	264152.5658     	464710.7595     
 pres_0          	264275.9472     	464739.1704     
 node_67         	264274.1709     	464739.8758     
 node_68         	263942.3245     	464559.4386     
 node_69         	263947.8653     	464276.1034     
 node_70         	263949.8653     	464276.1034     
 node_71         	264017.6994     	464534.8707     
 node_72         	264019.6994     	464534.8707     
 node_73         	263827.0517     	464687.2311     
 node_74         	263877.9357     	464364.5971     
 node_75         	263925.1690     	464545.9165     
 node_76         	263927.1690     	464545.9165     
 node_77         	263922.6891     	464465.1334     
 node_78         	263924.6891     	464465.1334     
 node_79         	263800.0637     	464672.9397     
 node_80         	263802.0637     	464672.9397     
 node_81         	264018.1340     	464535.1452     
 node_82         	263959.3703     	464496.7981     
 node_83         	263961.3703     	464496.7981     
 node_84         	264081.5839     	464374.2515     
 node_85         	264083.5839     	464374.2515     
 node_86         	263947.6218     	464276.2097     
 node_87         	263959.9502     	464497.1902     
 node_88         	263961.9502     	464497.1902     
 node_89         	263924.9527     	464546.2234     
 node_90         	263877.8189     	464364.3467     
 node_91         	263879.8189     	464364.3467     
 node_92         	264082.0063     	464374.0600     
 node_93         	264058.0318     	464321.0097     
 node_94         	264060.0318     	464321.0097     

[VERTICES]

[LABELS]

[BACKDROP]

[END]
