[TITLE]
Converted from Epanet to Staci, case name: lovo.spr


[JUNCTIONS]
;ID              	Elev        	Demand      	Pattern         
 node_0          	194.3990    	0.000000    	                	;
 node_1          	181.0888    	0.000000    	                	;
 node_2          	180.5337    	0.000000    	                	;
 node_3          	174.1735    	0.000000    	                	;
 node_4          	180.2317    	0.000000    	                	;
 node_5          	193.5511    	0.002500    	                	;
 node_6          	194.2874    	0.001667    	                	;
 node_7          	196.9051    	0.000000    	                	;
 node_8          	194.1117    	0.000833    	                	;
 node_9          	194.3091    	0.000000    	                	;
 node_10         	196.1755    	0.000000    	                	;
 node_11         	184.6263    	0.000000    	                	;
 node_12         	195.0412    	0.000000    	                	;
 node_13         	185.6521    	0.002917    	                	;
 node_14         	197.7990    	0.000000    	                	;
 node_15         	183.7733    	0.002083    	                	;
 node_16         	185.0104    	0.004167    	                	;
 node_17         	183.4686    	0.003333    	                	;
 node_18         	184.6792    	0.001042    	                	;
 node_19         	182.6616    	0.004583    	                	;
 node_20         	183.1715    	0.000000    	                	;
 node_21         	184.7392    	0.000000    	                	;
 node_22         	177.9059    	0.000000    	                	;
 node_23         	178.2786    	0.000000    	                	;
 node_24         	185.3255    	0.004583    	                	;
 node_25         	179.9622    	0.000000    	                	;
 node_26         	182.2143    	0.000000    	                	;
 node_27         	194.4016    	0.000592    	                	;
 node_28         	193.9504    	0.000833    	                	;
 node_29         	195.2431    	0.000833    	                	;
 node_30         	193.9496    	0.006250    	                	;
 node_31         	195.2993    	0.001250    	                	;
 node_32         	194.6230    	0.003333    	                	;
 node_33         	194.0646    	0.000000    	                	;
 node_34         	193.8883    	0.000417    	                	;
 node_35         	193.1527    	0.002083    	                	;
 node_36         	194.0364    	0.005304    	                	;
 node_37         	194.6381    	0.006667    	                	;
 node_38         	193.9629    	0.002917    	                	;
 node_39         	194.0317    	0.000417    	                	;
 node_40         	194.5448    	0.002083    	                	;
 node_41         	194.4004    	0.000000    	                	;
 node_42         	193.5271    	0.002500    	                	;
 node_43         	194.7069    	0.000000    	                	;
 node_44         	193.4673    	0.004167    	                	;
 node_45         	184.6492    	0.003262    	                	;
 node_46         	182.5206    	0.001250    	                	;
 node_47         	174.1671    	0.001667    	                	;
 node_48         	175.5522    	0.002500    	                	;
 node_49         	182.8670    	0.002917    	                	;
 node_50         	178.5750    	0.005012    	                	;
 node_51         	177.0108    	0.004167    	                	;
 node_52         	176.5708    	0.000000    	                	;
 node_53         	178.6592    	0.000833    	                	;
 node_54         	197.9540    	0.002500    	                	;
 node_55         	195.9950    	0.002500    	                	;
 node_56         	196.5697    	0.000000    	                	;
 node_57         	196.1382    	0.004583    	                	;
 node_58         	196.7303    	0.000417    	                	;
 node_59         	178.3571    	0.005000    	                	;
 node_60         	176.8913    	0.004583    	                	;
 node_61         	179.3504    	0.000417    	                	;
 node_62         	177.0540    	0.001667    	                	;
 node_63         	176.7845    	0.000833    	                	;
 node_64         	182.7389    	0.000000    	                	;
 node_65         	178.9273    	0.005000    	                	;
 node_66         	177.4615    	0.005000    	                	;
 node_67         	179.0333    	0.007500    	                	;
 node_68         	181.8908    	0.000571    	                	;
 node_69         	181.3777    	0.003333    	                	;
 node_70         	181.0182    	0.002917    	                	;
 node_71         	184.0520    	0.005000    	                	;
 node_72         	181.7171    	0.000833    	                	;
 node_73         	177.6099    	0.001250    	                	;
 node_74         	182.0460    	0.000000    	                	;
 node_75         	175.0621    	0.002083    	                	;
 node_76         	181.5305    	0.003750    	                	;
 node_77         	176.2363    	0.000833    	                	;
 node_78         	179.0779    	0.001250    	                	;
 node_79         	181.0328    	0.002083    	                	;
 node_80         	179.6907    	0.003750    	                	;
 node_81         	174.5023    	0.000000    	                	;
 node_82         	176.1866    	0.003750    	                	;
 node_83         	181.8418    	0.002917    	                	;
 node_84         	181.0356    	0.004167    	                	;
 node_85         	180.4327    	0.002917    	                	;
 node_86         	181.0672    	0.000000    	                	;
 node_87         	182.4723    	0.003333    	                	;
 node_88         	174.6411    	0.000138    	                	;
 node_89         	174.6143    	0.002917    	                	;
 node_90         	175.1489    	0.000000    	                	;
 node_91         	174.9513    	0.000417    	                	;
 node_92         	175.3556    	0.000000    	                	;
 node_93         	174.9497    	0.000000    	                	;
 node_94         	181.8317    	0.000417    	                	;
 node_95         	184.1031    	0.004167    	                	;
 node_96         	184.2202    	0.003750    	                	;
 node_97         	182.9705    	0.002500    	                	;
 node_98         	194.9425    	0.002917    	                	;
 node_99         	192.9559    	0.002083    	                	;
 node_100        	192.6713    	0.006667    	                	;
 node_101        	192.4833    	0.003333    	                	;
 node_102        	196.9119    	0.000000    	                	;
 node_103        	195.6494    	0.001250    	                	;
 node_104        	196.5940    	0.002500    	                	;
 node_105        	195.6015    	0.000000    	                	;
 node_106        	197.0902    	0.000000    	                	;
 node_107        	196.0805    	0.003750    	                	;
 node_108        	195.3194    	0.001250    	                	;
 node_109        	193.8443    	0.002500    	                	;
 node_110        	191.1572    	0.004167    	                	;
 node_111        	190.1220    	0.005833    	                	;
 node_112        	191.5289    	0.002500    	                	;
 node_113        	191.1993    	0.000000    	                	;
 node_114        	190.7495    	0.002500    	                	;
 node_115        	189.8328    	0.002083    	                	;
 node_116        	189.9375    	0.006667    	                	;
 node_117        	191.3216    	0.000000    	                	;
 node_118        	197.0603    	0.007083    	                	;
 node_119        	196.0086    	0.005417    	                	;
 node_120        	176.2246    	0.000625    	                	;
 node_121        	176.4810    	0.001250    	                	;
 node_122        	176.3773    	0.001667    	                	;
 node_123        	175.9131    	0.001250    	                	;
 node_124        	176.4357    	0.002500    	                	;
 node_125        	176.5178    	0.004167    	                	;
 node_126        	180.9865    	0.000000    	                	;
 node_127        	175.5750    	0.004583    	                	;
 node_128        	180.4795    	0.001250    	                	;
 node_129        	178.4880    	0.006250    	                	;
 node_130        	180.1179    	0.000417    	                	;
 node_131        	180.1191    	0.000208    	                	;
 node_132        	180.7566    	0.000000    	                	;
 node_133        	195.4321    	0.004167    	                	;
 node_134        	194.7717    	0.000000    	                	;
 node_135        	194.5122    	0.007725    	                	;
 node_136        	183.1182    	0.003079    	                	;
 node_137        	182.9796    	0.003333    	                	;
 node_138        	182.6942    	0.002917    	                	;
 node_139        	191.5066    	0.000000    	                	;
 node_140        	193.1384    	0.002917    	                	;
 node_141        	193.0538    	0.003750    	                	;
 node_142        	187.3088    	0.003750    	                	;
 node_143        	194.4741    	0.000417    	                	;
 node_144        	194.5820    	0.003750    	                	;
 node_145        	195.1604    	0.005000    	                	;
 node_146        	196.4580    	0.002083    	                	;
 node_147        	197.1602    	0.001250    	                	;
 node_148        	182.8961    	0.000000    	                	;
 node_149        	188.8686    	0.000417    	                	;
 node_150        	185.5765    	0.007500    	                	;
 node_151        	185.7705    	0.007917    	                	;
 node_152        	185.3276    	0.003333    	                	;
 node_153        	185.6071    	0.003750    	                	;
 node_154        	185.4133    	0.000833    	                	;
 node_155        	188.2351    	0.001667    	                	;
 node_156        	189.7819    	0.002500    	                	;
 node_157        	189.7153    	0.001250    	                	;
 node_158        	189.4552    	0.005417    	                	;
 node_159        	187.3383    	0.004167    	                	;
 node_160        	185.2193    	0.000833    	                	;
 node_161        	180.0083    	0.000000    	                	;
 node_162        	181.0660    	0.005000    	                	;
 node_163        	182.4141    	0.002917    	                	;
 node_164        	182.2692    	0.002083    	                	;
 node_165        	181.8795    	0.003333    	                	;
 node_166        	182.3147    	0.003333    	                	;
 node_167        	182.9177    	0.005417    	                	;
 node_168        	178.4539    	0.007083    	                	;
 node_169        	179.4597    	0.004167    	                	;
 node_170        	179.9251    	0.001667    	                	;
 node_171        	179.5045    	0.001250    	                	;
 node_172        	180.7151    	0.001667    	                	;
 node_173        	183.4642    	0.002500    	                	;
 node_174        	183.5735    	0.002083    	                	;
 node_175        	180.3545    	0.002083    	                	;
 node_176        	183.7952    	0.005854    	                	;
 node_177        	180.9140    	0.000000    	                	;
 node_178        	179.7640    	0.002917    	                	;
 node_179        	195.7812    	0.008500    	                	;
 node_180        	194.9975    	0.000833    	                	;
 node_181        	181.1052    	0.000000    	                	;
 node_182        	180.8219    	0.002083    	                	;
 node_183        	187.0562    	0.004583    	                	;
 node_184        	181.7189    	0.003333    	                	;
 node_185        	181.5636    	0.002083    	                	;
 node_186        	180.8898    	0.002083    	                	;
 node_187        	181.6608    	0.000833    	                	;
 node_188        	196.9133    	0.002500    	                	;
 node_189        	180.6900    	0.000833    	                	;
 node_190        	180.3740    	0.005417    	                	;
 node_191        	191.2194    	0.002500    	                	;
 node_192        	191.0222    	0.000833    	                	;
 node_193        	191.3654    	0.001667    	                	;
 node_194        	184.6881    	0.001667    	                	;
 node_195        	185.5535    	0.001667    	                	;
 node_196        	185.5952    	0.001667    	                	;
 node_197        	186.5619    	0.003321    	                	;
 node_198        	185.7119    	0.002083    	                	;
 node_199        	194.1430    	0.000000    	                	;
 node_200        	181.6067    	0.018821    	                	;
 node_201        	182.4536    	0.003087    	                	;
 node_202        	181.7192    	0.002917    	                	;
 node_203        	194.4390    	0.006750    	                	;
 node_204        	195.5724    	0.005000    	                	;
 node_205        	184.3558    	0.007462    	                	;
 node_206        	185.6718    	0.000417    	                	;
 node_207        	184.5031    	0.000000    	                	;
 node_208        	184.7410    	0.004583    	                	;
 node_209        	185.8095    	0.000000    	                	;
 node_210        	180.7190    	0.006250    	                	;
 node_211        	181.4564    	0.004583    	                	;
 node_212        	184.8721    	0.001667    	                	;
 node_213        	179.3709    	0.002500    	                	;
 node_214        	181.2154    	0.000000    	                	;
 node_215        	181.6984    	0.008333    	                	;
 node_216        	181.7530    	0.004583    	                	;
 node_217        	181.5838    	0.005417    	                	;
 node_218        	181.2905    	0.005833    	                	;
 node_219        	183.2037    	0.002500    	                	;
 node_220        	181.6983    	0.001250    	                	;
 node_221        	183.9551    	0.004583    	                	;
 node_222        	182.7041    	0.001042    	                	;
 node_223        	184.5657    	0.002083    	                	;
 node_224        	184.5582    	0.003750    	                	;
 node_225        	184.9496    	0.002083    	                	;
 node_226        	185.5197    	0.003333    	                	;
 node_227        	179.3991    	0.004167    	                	;
 node_228        	181.1470    	0.000833    	                	;
 node_229        	181.2039    	0.000417    	                	;
 node_230        	183.1546    	0.005417    	                	;
 node_231        	183.3767    	0.000208    	                	;
 node_232        	178.1577    	0.002083    	                	;
 node_233        	179.0378    	0.000000    	                	;
 node_234        	179.7196    	0.004583    	                	;
 node_235        	181.2268    	0.003333    	                	;
 node_236        	180.3283    	0.002917    	                	;
 node_237        	178.7126    	0.007917    	                	;
 node_238        	178.0501    	0.000208    	                	;
 node_239        	175.9504    	0.000000    	                	;
 node_240        	195.1515    	0.003333    	                	;
 node_241        	193.9921    	0.003333    	                	;
 node_242        	193.5690    	0.003750    	                	;
 node_243        	192.3193    	0.002500    	                	;
 node_244        	195.1300    	0.002500    	                	;
 node_245        	193.9701    	0.000000    	                	;
 node_246        	183.4436    	0.002917    	                	;
 node_247        	181.8024    	0.000417    	                	;
 node_248        	180.6877    	0.001250    	                	;
 node_249        	184.6932    	0.000000    	                	;
 node_250        	181.3279    	0.000000    	                	;
 node_251        	183.0675    	0.003333    	                	;
 node_252        	189.4783    	0.001875    	                	;
 node_253        	182.0644    	0.000000    	                	;
 node_254        	194.6247    	0.019367    	                	;
 node_255        	174.3951    	0.000000    	                	;
 node_256        	185.2597    	0.004583    	                	;
 node_257        	184.7746    	0.000417    	                	;
 node_258        	182.3982    	0.005000    	                	;
 node_259        	182.3698    	0.002500    	                	;
 node_260        	181.6499    	0.003333    	                	;
 node_261        	183.2464    	0.001250    	                	;
 node_262        	183.2125    	0.002917    	                	;
 node_263        	182.2000    	0.003333    	                	;
 node_264        	185.9078    	0.005000    	                	;
 node_265        	183.0086    	0.006250    	                	;
 node_266        	184.9894    	0.000000    	                	;
 node_267        	184.9657    	0.000000    	                	;
 node_268        	183.2086    	0.000000    	                	;
 node_269        	178.3189    	0.000000    	                	;
 node_270        	181.2510    	0.000000    	                	;
 node_271        	194.4521    	0.003333    	                	;
 node_272        	193.8561    	0.011667    	                	;
 node_273        	193.9496    	0.000833    	                	;
 node_274        	193.6174    	0.001250    	                	;
 node_275        	193.1627    	0.000000    	                	;
 node_276        	193.9908    	0.002083    	                	;
 node_277        	193.3629    	0.006667    	                	;
 node_278        	193.1467    	0.002917    	                	;
 node_279        	194.0516    	0.001667    	                	;
 node_280        	194.5308    	0.005000    	                	;
 node_281        	193.4265    	0.000625    	                	;
 node_282        	194.3938    	0.006250    	                	;
 node_283        	194.3370    	0.007500    	                	;
 node_284        	193.5642    	0.005417    	                	;
 node_285        	181.9233    	0.000833    	                	;
 node_286        	174.6043    	0.004167    	                	;
 node_287        	177.6162    	0.000000    	                	;
 node_288        	180.3120    	0.001667    	                	;
 node_289        	180.8733    	0.001250    	                	;
 node_290        	174.6421    	0.010417    	                	;
 node_291        	176.3777    	0.000000    	                	;
 node_292        	176.0255    	0.007892    	                	;
 node_293        	176.3242    	0.007083    	                	;
 node_294        	177.0942    	0.003750    	                	;
 node_295        	179.6501    	0.000208    	                	;
 node_296        	179.5718    	0.004167    	                	;
 node_297        	178.2867    	0.005417    	                	;
 node_298        	178.3515    	0.000833    	                	;
 node_299        	178.7740    	0.000000    	                	;
 node_300        	195.5634    	0.005000    	                	;
 node_301        	191.4179    	0.000000    	                	;
 node_302        	196.0099    	0.004583    	                	;
 node_303        	196.6395    	0.003333    	                	;
 node_304        	196.8681    	0.000833    	                	;
 node_305        	197.3957    	0.002500    	                	;
 node_306        	197.5552    	0.007500    	                	;
 node_307        	197.3810    	0.001250    	                	;
 node_308        	197.2341    	0.002917    	                	;
 node_309        	197.1458    	0.004167    	                	;
 node_310        	196.8469    	0.000000    	                	;
 node_311        	198.0964    	0.005000    	                	;
 node_312        	198.6816    	0.000000    	                	;
 node_313        	181.4549    	0.005104    	                	;
 node_314        	181.6689    	0.000000    	                	;
 node_315        	176.6572    	0.000058    	                	;
 node_316        	176.5442    	0.002917    	                	;
 node_317        	176.4276    	0.000000    	                	;
 node_318        	178.3716    	0.005417    	                	;
 node_319        	179.0771    	0.003333    	                	;
 node_320        	179.7620    	0.002500    	                	;
 node_321        	182.0857    	0.001250    	                	;
 node_322        	182.1360    	0.000000    	                	;
 node_323        	182.4161    	0.000417    	                	;
 node_324        	177.0671    	0.005833    	                	;
 node_325        	181.7361    	0.002083    	                	;
 node_326        	176.5279    	0.007917    	                	;
 node_327        	176.1810    	0.002917    	                	;
 node_328        	182.0192    	0.000000    	                	;
 node_329        	174.7423    	0.000417    	                	;
 node_330        	175.9734    	0.004167    	                	;
 node_331        	177.4801    	0.004583    	                	;
 node_332        	182.4279    	0.004167    	                	;
 node_333        	173.6888    	0.000833    	                	;
 node_334        	179.8161    	0.002083    	                	;
 node_335        	178.0121    	0.000000    	                	;
 node_336        	181.1590    	0.001250    	                	;
 node_337        	181.1683    	0.002500    	                	;
 node_338        	181.9405    	0.002917    	                	;
 node_339        	179.1962    	0.000000    	                	;
 node_340        	174.5856    	0.000000    	                	;
 node_341        	182.1666    	0.000417    	                	;
 node_342        	182.3064    	0.003333    	                	;
 node_343        	180.9082    	0.000833    	                	;
 node_344        	181.1028    	0.000000    	                	;
 node_345        	182.4949    	0.007462    	                	;
 node_346        	174.7001    	0.000000    	                	;
 node_347        	182.0373    	0.000000    	                	;
 node_348        	180.9713    	0.001667    	                	;
 node_349        	181.9973    	0.002500    	                	;
 node_350        	181.3331    	0.003750    	                	;
 node_351        	181.6459    	0.000517    	                	;
 node_352        	175.1943    	0.000000    	                	;
 node_353        	181.7802    	0.004583    	                	;
 node_354        	182.4374    	0.002500    	                	;
 node_355        	183.0045    	0.000000    	                	;
 node_356        	181.1498    	0.000000    	                	;
 node_357        	174.7562    	0.000000    	                	;
 node_358        	183.9154    	0.008750    	                	;
 node_359        	183.9333    	0.000000    	                	;
 node_360        	182.9251    	0.000000    	                	;
 node_361        	196.8085    	0.005000    	                	;
 node_362        	194.9660    	0.004167    	                	;
 node_363        	195.0443    	0.000000    	                	;
 node_364        	195.1753    	0.001250    	                	;
 node_365        	196.1867    	0.001250    	                	;
 node_366        	194.9460    	0.001704    	                	;
 node_367        	195.4992    	0.003333    	                	;
 node_368        	195.0609    	0.002917    	                	;
 node_369        	195.8200    	0.005000    	                	;
 node_370        	197.1358    	0.031483    	                	;
 node_371        	196.5686    	0.017500    	                	;
 node_372        	193.4211    	0.001458    	                	;
 node_373        	193.3478    	0.005000    	                	;
 node_374        	189.9210    	0.004167    	                	;
 node_375        	193.4323    	0.004167    	                	;
 node_376        	176.4575    	0.009583    	                	;
 node_377        	176.0613    	0.010833    	                	;
 node_378        	180.7521    	0.014958    	                	;
 node_379        	175.3435    	0.002500    	                	;
 node_380        	175.2664    	0.000000    	                	;
 node_381        	175.7879    	0.001667    	                	;
 node_382        	175.9636    	0.001667    	                	;
 node_383        	180.8741    	0.001250    	                	;
 node_384        	179.6158    	0.001250    	                	;
 node_385        	179.3863    	0.006250    	                	;
 node_386        	184.1701    	0.002500    	                	;
 node_387        	183.0015    	0.005417    	                	;
 node_388        	183.8063    	0.002083    	                	;
 node_389        	185.2828    	0.005529    	                	;
 node_390        	193.7231    	0.002542    	                	;
 node_391        	182.9652    	0.006667    	                	;
 node_392        	182.4083    	0.001667    	                	;
 node_393        	182.6722    	0.000833    	                	;
 node_394        	192.6543    	0.007083    	                	;
 node_395        	186.9391    	0.002083    	                	;
 node_396        	186.6744    	0.004167    	                	;
 node_397        	195.0281    	0.004167    	                	;
 node_398        	186.2735    	0.007054    	                	;
 node_399        	185.5304    	0.000833    	                	;
 node_400        	185.6078    	0.004583    	                	;
 node_401        	185.5334    	0.005417    	                	;
 node_402        	189.5415    	0.002917    	                	;
 node_403        	189.7647    	0.005833    	                	;
 node_404        	190.0920    	0.001250    	                	;
 node_405        	185.3420    	0.001250    	                	;
 node_406        	193.6376    	0.002917    	                	;
 node_407        	193.0650    	0.004167    	                	;
 node_408        	193.0411    	0.002500    	                	;
 node_409        	182.2803    	0.000417    	                	;
 node_410        	184.9247    	0.005417    	                	;
 node_411        	185.0107    	0.004583    	                	;
 node_412        	184.1255    	0.010833    	                	;
 node_413        	183.4978    	0.006667    	                	;
 node_414        	182.4092    	0.004583    	                	;
 node_415        	182.7353    	0.000000    	                	;
 node_416        	183.4124    	0.006250    	                	;
 node_417        	178.1900    	0.004583    	                	;
 node_418        	180.6559    	0.001250    	                	;
 node_419        	180.2705    	0.000833    	                	;
 node_420        	183.3092    	0.002500    	                	;
 node_421        	181.8202    	0.002917    	                	;
 node_422        	186.8891    	0.007083    	                	;
 node_423        	187.9848    	0.005417    	                	;
 node_424        	181.5517    	0.000000    	                	;
 node_425        	181.0485    	0.003750    	                	;
 node_426        	181.1303    	0.003333    	                	;
 node_427        	180.9037    	0.005000    	                	;
 node_428        	184.9548    	0.000000    	                	;
 node_429        	184.8774    	0.003333    	                	;
 node_430        	181.7264    	0.005017    	                	;
 node_431        	181.7205    	0.001250    	                	;
 node_432        	180.0105    	0.001250    	                	;
 node_433        	179.9501    	0.002500    	                	;
 node_434        	179.8572    	0.002083    	                	;
 node_435        	179.8664    	0.005833    	                	;
 node_436        	181.4636    	0.000000    	                	;
 node_437        	180.8506    	0.006550    	                	;
 node_438        	188.8374    	0.002083    	                	;
 node_439        	191.2401    	0.001250    	                	;
 node_440        	181.4357    	0.002500    	                	;
 node_441        	181.1327    	0.005000    	                	;
 node_442        	184.9270    	0.000833    	                	;
 node_443        	186.0091    	0.003750    	                	;
 node_444        	186.1722    	0.001250    	                	;
 node_445        	185.9359    	0.002083    	                	;
 node_446        	193.9115    	0.004167    	                	;
 node_447        	180.3161    	0.002083    	                	;
 node_448        	196.1230    	0.000000    	                	;
 node_449        	186.3337    	0.002083    	                	;
 node_450        	196.1553    	0.004167    	                	;
 node_451        	181.7362    	0.000000    	                	;
 node_452        	195.3328    	0.001250    	                	;
 node_453        	194.2325    	0.002917    	                	;
 node_454        	181.0005    	0.019412    	                	;
 node_455        	193.8628    	0.000625    	                	;
 node_456        	193.5185    	0.004583    	                	;
 node_457        	184.8227    	0.001562    	                	;
 node_458        	182.7670    	0.007187    	                	;
 node_459        	180.1491    	0.003750    	                	;
 node_460        	184.5572    	0.002500    	                	;
 node_461        	178.8860    	0.000000    	                	;
 node_462        	181.1754    	0.001042    	                	;
 node_463        	181.3552    	0.004167    	                	;
 node_464        	181.1766    	0.005000    	                	;
 node_465        	182.8176    	0.003333    	                	;
 node_466        	181.7731    	0.009583    	                	;
 node_467        	182.5801    	0.004583    	                	;
 node_468        	184.5799    	0.000000    	                	;
 node_469        	184.6136    	0.000833    	                	;
 node_470        	183.7869    	0.002917    	                	;
 node_471        	184.8959    	0.004583    	                	;
 node_472        	183.6718    	0.004167    	                	;
 node_473        	182.8375    	0.001667    	                	;