;This file is generated from muStorageEPANET objects

[TITLE]
 DESCRIPTION

[JUNCTIONS]
;------------------------------------------------------
; ID        Elevation  Demand   Pattern
;------------------------------------------------------
        1_0  23.377752
        1_1  23.311157
       1_10  23.823816
      1_100  23.441971
     1_1000  25.501181
     1_1001  24.913155
     1_1002  26.498278
     1_1003  27.617384
     1_1004  25.493820
     1_1005  27.378916
     1_1006  24.701818
     1_1007  26.535831
     1_1008  26.570705
     1_1009  24.764549
      1_101  23.474386
     1_1010  25.319820
     1_1011  24.687883
     1_1012  25.396832
     1_1014  24.481791
     1_1015  25.885225
     1_1016  26.179592
     1_1017  26.162891
     1_1018  27.429132
     1_1019  26.637274
      1_102  23.473825
     1_1020  24.554806
     1_1021  26.128265
     1_1022  24.549135
     1_1023  27.430294
     1_1024  26.092472
     1_1025  27.481651
     1_1026  25.153481
     1_1027  25.530293
     1_1028  27.390434
     1_1029  25.584105
      1_103  23.439644
     1_1030  25.632401
     1_1031  27.885731
     1_1032  25.516941
     1_1033  24.858351
     1_1034  26.220892
     1_1035  25.478474
     1_1036  25.148321
     1_1037  25.478559
     1_1038  25.730274
     1_1039  24.868355
      1_104  23.460859
     1_1040  27.618252
     1_1041  25.017694
     1_1042  26.332209
     1_1043  27.118444
     1_1044  25.176540
     1_1045  27.805391
     1_1046  25.460611
     1_1047  25.757408
     1_1048  24.901888
     1_1049  25.469961
      1_105  53.855789
     1_1050  24.896866
     1_1051  25.089323
     1_1052  25.605972
     1_1053  26.563469
     1_1054  25.413452
     1_1055  25.518841
     1_1056  26.823015
     1_1057  25.500000
     1_1058  26.150227
     1_1059  25.676001
     1_1060  26.150415
     1_1061  24.811764
     1_1062  25.500000
     1_1065  25.318010
     1_1066  24.937248
     1_1067  26.474907
     1_1068  25.989294
     1_1069  24.897255
     1_1070  24.892584
     1_1071  26.863014
     1_1072  27.745907
     1_1073  53.937496
     1_1074  26.885641
     1_1075  26.855310
     1_1076  25.884804
     1_1077  27.500000
     1_1078  27.142405
     1_1079  27.090319
      1_108  23.595388
     1_1080  27.350691
     1_1081  27.299032
     1_1082  25.500000
     1_1083  27.079325
     1_1084  25.451061
     1_1085  28.997173
     1_1086  26.835545
     1_1087  25.332329
     1_1088  25.350353
     1_1089  26.417635
      1_109  24.517599
     1_1090  26.980658
     1_1091  27.207886
     1_1092  26.976984
     1_1093  25.950617
     1_1094  25.394119
     1_1095  25.500000
     1_1096  25.233807
     1_1097  25.466892
     1_1098  27.490009
     1_1099  27.000000
       1_11  23.715248
      1_110  24.891766
     1_1100  26.816402
     1_1101  27.466732
     1_1102  27.000000
     1_1103  26.809582
     1_1104  25.473913
     1_1105  25.985058
     1_1106  25.371998
     1_1107  25.442400
     1_1108  26.028822
     1_1109  25.500000
      1_111  23.018156
     1_1110  25.112209
     1_1111  26.809441
     1_1113  25.045391
     1_1114  25.500000
     1_1115  26.521297
     1_1116  27.150681
     1_1117  25.529751
     1_1118  26.959387
     1_1119  25.197937
      1_112  23.279560
     1_1120  25.463659
     1_1121  25.500000
     1_1122  27.122246
     1_1123  26.818552
     1_1124  27.125763
     1_1125  25.500000
     1_1126  27.162622
     1_1127  25.537642
     1_1128  25.096783
     1_1129  25.540449
      1_113  23.235437
     1_1130  26.074709
     1_1131  25.055744
     1_1132  26.776361
     1_1133  25.650379
     1_1134  25.425606
     1_1135  26.074131
     1_1136  26.975201
     1_1137  25.500000
     1_1138  25.500000
     1_1139  24.613886
      1_114  22.999384
     1_1140  30.431871
     1_1141  26.921474
     1_1142  25.394375
     1_1143  25.395819
     1_1144  25.395912
     1_1145  26.347502
     1_1146  51.872879
     1_1147  24.500000
     1_1148  24.529520
     1_1149  26.991585
      1_115  23.005564
     1_1150  29.387594
     1_1151  26.995768
     1_1152  26.484678
     1_1153  58.328068
     1_1154  29.280703
     1_1155  24.915344
     1_1156  28.310720
     1_1157  25.436701
     1_1158  28.074488
     1_1159  27.493893
      1_116  54.042023
     1_1160  25.178572
     1_1161  25.971920
     1_1162  28.125845
     1_1163  26.583412
     1_1164  27.469332
     1_1165  25.989061
     1_1166  28.029596
     1_1167  25.926964
     1_1168  26.667835
     1_1169  27.462465
      1_117  54.024384
     1_1170  26.629351
     1_1171  27.951761
     1_1172  25.094336
     1_1173  26.935200
     1_1174  26.940437
     1_1175  30.274508
     1_1176  25.847107
     1_1177  26.958008
     1_1178  50.090965
     1_1179  50.029678
      1_118  24.289448
     1_1180  25.890495
     1_1181  49.947117
     1_1182  26.910690
     1_1183  26.571793
     1_1184  26.000000
     1_1185  30.521917
     1_1186  30.052799
     1_1187  25.998236
     1_1188  30.126194
     1_1189  25.691156
      1_119  23.010324
     1_1190  26.497604
     1_1191  25.973906
     1_1192  29.295046
     1_1193  29.577118
     1_1194  29.312937
     1_1195  28.086245
     1_1196  28.777847
     1_1197  25.548555
     1_1198  26.698471
     1_1199  26.701931
       1_12  23.500814
      1_120  22.990822
     1_1200  29.004957
     1_1201  28.262060
     1_1202  25.846111
     1_1203  26.098146
     1_1204  26.091652
     1_1206  28.266088
     1_1207  27.800978
     1_1208  26.699421
     1_1209  25.853146
      1_121  24.253687
     1_1210  28.253702
     1_1211  49.712845
     1_1212  26.787851
     1_1213  28.907673
     1_1214  29.951189
     1_1215  25.753826
     1_1216  25.984053
     1_1217  28.936806
     1_1218  26.715118
     1_1219  25.851418
      1_122  24.675785
     1_1220  26.721699
     1_1221  27.094851
     1_1222  26.735565
     1_1223  29.860666
     1_1224  26.721811
     1_1225  25.751711
     1_1226  25.832052
     1_1227  25.929605
     1_1228  25.873337
     1_1229  25.775177
      1_123  22.485521
     1_1230  25.708946
     1_1231  26.707230
     1_1232  25.500000
     1_1233  29.831064
     1_1234  25.500000
     1_1235  29.801723
     1_1236  25.882378
     1_1237  26.656427
      1_124  23.053003
     1_1241  29.805298
     1_1243  29.799620
     1_1244  25.890142
     1_1245  27.662750
     1_1246  25.930140
     1_1247  26.724134
     1_1248  29.741295
     1_1249  29.742928
      1_125  23.532337
     1_1250  26.956564
     1_1251  29.994310
     1_1252  24.390646
     1_1253  26.879763
     1_1254  26.374161
     1_1255  26.877733
     1_1256  49.292347
     1_1257  26.409996
     1_1258  24.844915
     1_1259  26.780552
      1_126  22.841913
     1_1260  26.443401
     1_1261  26.000000
     1_1262  25.832125
     1_1263  26.872314
     1_1264  27.645094
     1_1265  26.000000
     1_1266  26.761112
     1_1267  26.753479
     1_1268  27.529892
     1_1269  27.492361
      1_127  22.624748
     1_1270  26.000000
     1_1271  26.000000
     1_1272  26.000000
     1_1273  26.000000
     1_1274  27.585516
     1_1275  25.478010
     1_1276  25.908327
     1_1277  26.759418
     1_1278  26.000000
     1_1279  49.284168
      1_128  23.602507
     1_1280  26.737617
     1_1281  26.000000
     1_1282  25.368614
     1_1287  27.463551
     1_1288  46.620712
     1_1289  25.553827
      1_129  42.450947
     1_1290  25.631456
     1_1291  25.244917
     1_1292  25.674688
     1_1293  26.046631
     1_1294  27.480471
     1_1296  26.051781
     1_1297  26.083462
     1_1298  25.045963
     1_1299  25.882895
       1_13  22.905773
      1_130  42.468296
     1_1301  25.154202
     1_1302  25.977570
     1_1303  27.659193
     1_1304  51.114952
     1_1305  25.140631
     1_1306  61.695415
     1_1307  26.417267
     1_1308  25.862537
     1_1309  26.140272
      1_131  22.988607
     1_1310  26.234230
     1_1311  26.810036
     1_1312  61.401489
     1_1313  61.501740
     1_1314  24.946535
     1_1315  26.789268
     1_1316  26.238501
     1_1317  26.447716
     1_1318  26.890280
     1_1319  24.600082
      1_132  23.000000
     1_1320  54.752197
     1_1321  57.625446
     1_1322  25.948057
     1_1323  25.774174
     1_1324  26.513969
     1_1325  25.961237
     1_1326  29.000200
     1_1327  26.580593
     1_1328  25.811485
     1_1329  26.612823
      1_133  23.455374
     1_1330  26.000000
     1_1331  29.002285
     1_1332  26.000000
     1_1333  26.452723
     1_1334  29.041540
     1_1335  24.829685
     1_1336  26.130852
     1_1337  25.645206
     1_1338  26.444103
     1_1339  25.023521
      1_134  23.000000
     1_1340  25.102385
     1_1341  26.926136
     1_1343  27.269131
     1_1344  25.000629
     1_1345  26.125860
     1_1346  27.111036
     1_1347  26.489571
     1_1349  26.493343
      1_135  41.924065
     1_1350  27.065813
     1_1351  25.988018
     1_1352  25.628740
     1_1353  26.380438
     1_1354  25.992430
     1_1355  29.027447
     1_1356  29.011549
     1_1357  26.278265
     1_1358  25.766476
     1_1359  25.054293
      1_136  23.251066
     1_1360  29.013424
     1_1361  27.045523
     1_1362  26.310610
     1_1363  29.069246
     1_1364  26.440424
     1_1365  26.285105
     1_1366  26.996922
     1_1367  25.412119
     1_1368  26.385256
     1_1369  26.521223
      1_137  23.305986
     1_1370  25.474451
     1_1371  26.506592
     1_1372  25.505560
     1_1373  29.068563
     1_1374  29.436953
     1_1375  25.571461
     1_1376  25.687881
     1_1377  27.195097
     1_1378  29.404108
     1_1379  26.483164
      1_138  23.157825
     1_1380  27.148026
     1_1381  25.921635
     1_1382  26.484301
     1_1383  26.484182
     1_1384  26.439596
     1_1385  26.683735
     1_1386  25.977812
     1_1387  26.653580
     1_1388  26.369883
     1_1389  26.792606
      1_139  23.242155
     1_1390  26.496450
     1_1391  26.970770
     1_1392  26.467678
     1_1393  26.490673
     1_1394  26.990589
     1_1395  28.741568
     1_1396  28.592007
     1_1397  29.418858
     1_1398  25.500000
     1_1399  26.965071
       1_14  23.232628
      1_140  24.129084
     1_1400  26.875551
     1_1401  26.995733
     1_1402  26.984228
     1_1403  26.978373
     1_1404  26.978823
     1_1405  26.943872
     1_1406  25.500000
     1_1407  26.963951
     1_1408  29.465879
     1_1409  26.968115
      1_141  23.464821
     1_1410  26.966867
     1_1411  26.420490
     1_1412  27.032305
     1_1413  26.144810
     1_1414  29.635731
     1_1415  26.995649
     1_1416  26.982286
     1_1417  26.982208
     1_1418  26.521255
     1_1419  26.524075
      1_142  23.000000
     1_1420  29.628046
     1_1421  27.075859
     1_1422  26.557899
     1_1423  26.865324
     1_1424  29.026154
     1_1425  26.550865
     1_1427  29.025766
     1_1428  29.782417
     1_1429  26.863464
      1_143  23.363384
     1_1430  27.002575
     1_1431  26.500000
     1_1432  27.309881
     1_1433  29.836653
     1_1434  26.536346
     1_1435  27.013502
     1_1436  26.458477
     1_1437  26.834105
     1_1438  26.525669
     1_1439  29.901064
      1_144  23.226053
     1_1440  26.552279
     1_1441  26.837370
     1_1442  29.174551
     1_1443  27.057547
     1_1444  26.866745
     1_1445  27.002592
     1_1446  30.193148
     1_1447  29.163261
     1_1448  26.125158
     1_1449  29.817566
      1_145  21.576635
     1_1450  25.542736
     1_1451  29.196014
     1_1452  25.990211
     1_1453  27.008179
     1_1454  28.936193
     1_1455  26.257196
     1_1456  27.033239
     1_1457  27.028950
     1_1458  29.021616
     1_1459  26.512522
      1_146  22.576611
     1_1460  31.299063
     1_1461  31.319624
     1_1462  30.908585
     1_1463  26.528988
     1_1464  26.976789
     1_1465  26.460077
     1_1466  29.761797
     1_1467  26.642334
     1_1468  26.524124
     1_1469  30.564877
      1_147  22.060690
     1_1470  25.663445
     1_1471  26.855501
     1_1472  27.311903
     1_1473  25.908518
     1_1474  27.234896
     1_1475  27.180414
     1_1476  25.751005
     1_1477  31.170961
     1_1478  25.858130
     1_1479  25.790894
      1_148  23.021976
     1_1480  27.474110
     1_1481  25.725534
     1_1482  31.481298
     1_1483  25.668903
     1_1484  25.916365 	;TEE REMOVED 12/05
     1_1485  27.022625 	;4712
     1_1486  26.917784
     1_1487  26.909683
     1_1488  27.475613
     1_1489  26.822121
      1_149  24.105501
     1_1490  27.382875
     1_1491  27.122047
     1_1492  26.866858
     1_1493  27.000000
     1_1494  26.447929
     1_1495  26.918617
     1_1496  27.000788
     1_1497  29.804277
     1_1498  27.230913
     1_1499  27.231241
       1_15  22.480492
      1_150  22.982241
     1_1500  27.127066
     1_1501  27.412777
     1_1502  27.001255
     1_1503  27.299154
     1_1504  25.844057
     1_1505  26.895452
     1_1506  26.946850
     1_1507  27.331554
     1_1508  26.991236
     1_1509  27.352779
      1_151  22.992931
     1_1510  25.883949
     1_1511  27.403513
     1_1512  27.042692
     1_1513  27.369627
     1_1514  28.531565
     1_1515  27.111464
     1_1516  26.982643
     1_1517  27.965380
     1_1518  26.630758
     1_1519  26.983524
      1_152  23.288950
     1_1520  26.056227
     1_1521  26.984966
     1_1522  67.739738
     1_1523  67.898811
     1_1524  27.484087
     1_1525  26.148634
     1_1526  26.029108
     1_1527  27.491081
     1_1528  25.965345
     1_1529  25.959499
      1_153  22.664852
     1_1530  25.967028
     1_1531  26.106859
     1_1532  25.978712
     1_1533  26.974510
     1_1534  28.936237
     1_1535  28.749685
     1_1536  28.727604
     1_1537  27.508532
     1_1538  26.986280
     1_1539  27.547434
      1_154  24.145058
     1_1540  27.092730
     1_1541  26.992023
     1_1542  27.595390
     1_1543  27.109228
     1_1544  27.629858
     1_1545  27.314556
     1_1546  26.996933
     1_1547  27.429930
     1_1548  26.995476
     1_1549  27.563749
      1_155  24.447153
     1_1550  27.010521
     1_1551  26.986179
     1_1552  26.337801
     1_1553  27.442909
     1_1554  27.297693
     1_1555  27.821831
     1_1556  28.541420
     1_1557  30.101954
     1_1558  30.135643
     1_1559  31.112091
      1_156  23.452940
     1_1560  27.119049
     1_1561  27.902596
     1_1562  27.058298
     1_1563  27.054823
     1_1564  26.197096
     1_1565  28.544775
     1_1566  27.874470
     1_1567  27.516237
     1_1568  27.604431
     1_1569  26.321550
      1_157  22.072388
     1_1570  30.564734
     1_1571  26.398382
     1_1572  26.324991
     1_1573  27.933104
     1_1574  26.282789
     1_1575  27.458820
     1_1576  26.309673
     1_1577  26.329512
     1_1578  27.479456
     1_1579  27.925724
      1_158  22.688271
     1_1580  28.687025
     1_1581  68.775650
     1_1582  31.110495
     1_1583  27.310637
     1_1584  31.047365
     1_1585  31.493111
     1_1586  26.993818
     1_1587  27.318920
     1_1588  26.994623
     1_1589  27.314484
      1_159  24.076435
     1_1590  27.529823
     1_1591  27.750568
     1_1592  27.761417
     1_1593  28.874630
     1_1594  28.269402
     1_1595  28.508583
     1_1596  27.826265
     1_1597  27.374847
     1_1598  27.013796
     1_1599  27.381016
       1_16  24.014666
      1_160  23.344940
     1_1600  29.146645
     1_1601  28.560942
     1_1602  27.072182
     1_1603  27.451038
     1_1604  27.451456
     1_1605  28.500000
     1_1606  27.459818
     1_1607  28.500000
     1_1608  27.489115
     1_1609  27.989887
      1_161  23.727854
     1_1610  28.500000
     1_1611  27.486534
     1_1612  28.547924
     1_1613  26.467798
     1_1614  27.914717
     1_1615  28.031477
     1_1616  27.798283
     1_1617  26.482079
     1_1618  27.381968
     1_1619  27.253082
      1_162  23.476055
     1_1620  26.083517
     1_1621  27.360188
     1_1622  29.418873
     1_1623  29.697063
     1_1624  26.501698
     1_1625  27.896700
     1_1626  28.500000
     1_1627  28.439535
     1_1628  30.976545
     1_1629  27.347431
      1_163  23.284285
     1_1630  28.965635
     1_1631  28.100119
     1_1632  29.039831
     1_1633  27.419907
     1_1634  28.044750
     1_1635  27.440210
     1_1636  27.419954
     1_1637  30.769234
     1_1638  29.044046
     1_1639  31.247576
      1_164  23.325447
     1_1640  28.999910
     1_1641  27.424749
     1_1642  27.484180
     1_1643  29.008717
     1_1644  29.009624
     1_1645  26.684647
     1_1646  28.118036
     1_1647  28.504580
     1_1648  29.000448
     1_1649  28.545681
      1_165  23.556387
     1_1650  30.445024
     1_1651  68.909416
     1_1653  68.962364
     1_1654  28.030336
     1_1656  28.030529
     1_1657  27.464487
     1_1658  28.758734
     1_1659  26.841274
      1_166  23.555580
     1_1660  28.078281
     1_1661  28.085251
     1_1662  26.988359
     1_1663  27.974188
     1_1664  27.997110
     1_1665  28.115305
     1_1666  28.880507
     1_1667  27.991337
     1_1668  30.742716
     1_1669  30.835829
      1_167  22.011551
     1_1670  27.970335
     1_1671  29.083172
     1_1672  27.864017
     1_1673  61.669533
     1_1674  31.634449
     1_1675  27.974375
     1_1676  27.496113
     1_1677  27.073837
     1_1678  28.840954
     1_1679  28.966841
      1_168  23.626747
     1_1680  28.966042
     1_1681  28.946972
     1_1682  27.053652
     1_1683  27.578518
     1_1684  66.287720
     1_1685  27.704874
     1_1686  30.434296
     1_1687  30.459749
     1_1688  26.651199
     1_1689  28.929472
      1_169  20.962027
     1_1690  28.501740
     1_1691  30.526991
     1_1692  27.102245
     1_1693  26.622627
     1_1694  27.617336
     1_1695  28.930285
     1_1696  30.775660
     1_1697  27.581129
     1_1698  27.582079
     1_1699  27.692266
       1_17  23.715147
      1_170  23.414509
     1_1700  30.725307
     1_1701  27.128105
     1_1702  27.069460
     1_1703  27.571705
     1_1704  26.500000
     1_1705  26.935394
     1_1706  28.366346
     1_1707  26.500000
     1_1708  26.500000
     1_1709  27.599012
      1_171  22.976427
     1_1710  61.517269
     1_1711  28.333998
     1_1712  28.584650
     1_1713  26.500000
     1_1714  28.006550
     1_1715  28.011158
     1_1716  28.209162
     1_1717  30.432190
     1_1718  27.731155
     1_1719  27.991207
      1_172  23.000000
     1_1720  27.560312
     1_1721  27.968048
     1_1722  30.717600
     1_1723  27.613796
     1_1724  29.843039
     1_1725  28.000000
     1_1726  28.044510 	;ON HODGENS PL
     1_1727  29.414953
     1_1728  28.004313
     1_1729  28.018135
      1_173  22.048264
     1_1730  30.863138
     1_1731  29.902205
     1_1732  30.559097
     1_1733  29.886387
     1_1734  28.291588
     1_1735  27.532991
     1_1736  31.105543
     1_1737  28.273540
     1_1738  27.581524
     1_1739  27.278643
      1_174  23.594913
     1_1740  27.994570
     1_1741  28.239599
     1_1742  28.014156
     1_1743  27.390768
     1_1744  28.500000
     1_1746  28.533812
     1_1747  29.665134
     1_1748  27.994549
     1_1749  28.484413
      1_175  23.733286
     1_1750  27.406601
     1_1751  28.480824
     1_1752  28.095778
     1_1753  32.096626
     1_1754  28.546820
     1_1755  27.972078
     1_1756  28.500000
     1_1757  26.560633
     1_1758  27.782009
     1_1759  28.513086
      1_176  23.703281
     1_1760  28.422235
     1_1761  28.466738
     1_1762  27.736168
     1_1763  31.974783
     1_1764  28.500000
     1_1765  28.495687
     1_1766  26.639133
     1_1767  28.483196
     1_1768  27.988703
     1_1769  27.622976
      1_177  23.939882
     1_1770  27.634119
     1_1771  28.515409
     1_1772  27.655008
     1_1773  27.697672
     1_1774  31.714481
     1_1775  27.717161
     1_1776  27.695660
     1_1777  27.717932
     1_1778  32.963818
     1_1779  27.729372
      1_178  23.300146
     1_1780  26.734915
     1_1781  27.713255
     1_1782  26.500000
     1_1783  31.230520
     1_1784  26.500000
     1_1785  27.404510
     1_1786  27.712904
     1_1787  28.454914
     1_1788  28.326050
     1_1789  32.806591
      1_179  23.517673
     1_1790  28.229382
     1_1791  27.933308
     1_1792  26.564423
     1_1793  27.516472
     1_1794  27.996489
     1_1795  26.617964
     1_1796  28.572889
     1_1797  28.490351
     1_1798  26.788939
     1_1799  28.625591
       1_18  23.899530
      1_180  53.301167
     1_1800  32.737186
     1_1801  26.728729
     1_1802  28.059944
     1_1803  26.730789
     1_1804  26.736677
     1_1805  28.201469 	;AT 321 RANGITIKEI ST
     1_1806  31.620785
     1_1807  28.197514
     1_1808  28.000000
     1_1809  26.795582
      1_181  23.472395
     1_1810  28.000000
     1_1811  28.695004
     1_1812  28.381407
     1_1813  28.664684
     1_1814  28.514544
     1_1815  28.833317
     1_1816  31.590593
     1_1817  28.914324
     1_1818  28.500000
     1_1819  28.000000
      1_182  23.533585
     1_1820  29.468367
     1_1822  28.881880
     1_1823  28.953892
     1_1824  28.932426
     1_1825  30.976351
     1_1826  29.177721
     1_1827  28.494381
     1_1828  28.961418
     1_1829  28.000000
      1_183  23.308662
     1_1830  28.000000
     1_1831  28.974371
     1_1832  32.535320
     1_1833  28.684874
     1_1834  28.000000
     1_1835  31.052147
     1_1836  28.562887
     1_1837  26.642363
     1_1838  26.644091
     1_1839  28.441391
      1_184  23.000000
     1_1840  28.399319
     1_1841  28.220911 	;LOWESTOFT PL
     1_1842  28.406282
     1_1843  27.287281
     1_1844  28.000000
     1_1845  32.465553
     1_1846  27.089495
     1_1847  28.434589 	;CNR OF COLLEGE AND LOWESTOFTPL
     1_1848  28.984526
     1_1849  28.989946
      1_185  23.000000
     1_1850  28.532072
     1_1851  28.386192
     1_1852  31.015448
     1_1853  31.562300
     1_1854  28.987823
     1_1855  28.511992
     1_1856  28.437408
     1_1857  29.000000
     1_1858  28.483265
     1_1859  29.000000
      1_186  24.042452
     1_1860  29.000000
     1_1861  28.945337
     1_1862  28.967062
     1_1863  28.497841
     1_1864  29.000000
     1_1865  28.988691
     1_1866  28.903446
     1_1867  28.946882
     1_1868  28.274046
     1_1869  28.963789
      1_187  23.875540
     1_1870  28.956705
     1_1871  31.367987
     1_1872  26.978128
     1_1873  28.945511
     1_1874  28.947372
     1_1875  29.000000
     1_1876  26.962009
     1_1877  26.998884
     1_1878  28.535467
     1_1879  28.945019
      1_188  23.515749
     1_1880  29.014368
     1_1881  29.021145
     1_1882  29.018499
     1_1883  29.159019
     1_1884  28.881279
     1_1885  29.624731
     1_1886  29.079344
     1_1887  33.981869
     1_1888  29.063147
     1_1889  29.540281
      1_189  23.695869
     1_1890  29.236883
     1_1891  29.531012
     1_1892  26.986378
     1_1893  29.032206
     1_1894  29.968794
     1_1895  29.627598
     1_1896  29.090971
     1_1897  29.564684
     1_1898  26.967966
     1_1899  29.101624
       1_19  23.898401
      1_190  23.709682
     1_1900  26.969244
     1_1901  28.876801
     1_1902  26.997284
     1_1903  28.971716
     1_1904  31.852928
     1_1905  28.944523
     1_1906  28.519361
     1_1907  28.955271
     1_1908  28.956085
     1_1909  28.774958
      1_191  23.090425
     1_1910  29.318096
     1_1911  28.513140
     1_1912  32.510628
     1_1913  32.149418
     1_1914  29.337151
     1_1915  26.959866
     1_1916  29.358379
     1_1917  28.885803
     1_1918  29.323400
     1_1919  28.911295
      1_192  23.038570
     1_1920  28.891251
     1_1921  28.559090
     1_1922  29.037107
     1_1923  29.375463
     1_1924  29.050077
     1_1925  29.088404
     1_1926  33.992130
     1_1927  29.363840
     1_1928  33.978752
     1_1929  33.953461
      1_193  23.552744
     1_1930  29.394163
     1_1931  29.067102
     1_1932  29.195328
     1_1933  29.371840
     1_1934  28.706293
     1_1935  33.999565
     1_1936  26.995201
     1_1937  46.294731
     1_1938  29.488348
     1_1939  26.964512
      1_194  23.160831
     1_1940  32.882225
     1_1941  29.318222
     1_1942  29.479738
     1_1943  29.377344
     1_1944  29.479698
     1_1945  33.010044
     1_1946  32.836552
     1_1947  28.953314
     1_1948  29.474571
     1_1949  27.122946
      1_195  22.129536
     1_1950  28.578863
     1_1951  29.522608
     1_1952  29.524864
     1_1953  29.483395
     1_1954  28.729931
     1_1955  28.084145
     1_1956  29.318531
     1_1957  32.923603
     1_1958  28.740562
     1_1959  33.006069
      1_196  23.092848
     1_1960  27.277145
     1_1961  28.696650
     1_1962  29.488010
     1_1963  32.227295
     1_1964  29.519531
     1_1965  29.486576
     1_1966  33.061111
     1_1967  29.490269
     1_1968  28.783789
     1_1969  28.253485
      1_197  24.000000
     1_1970  28.389168
     1_1971  29.484615
     1_1972  29.464973
     1_1973  28.439396
     1_1974  31.956879
     1_1975  33.093689
     1_1976  29.485065
     1_1977  29.120775
     1_1978  29.124950
     1_1979  33.646732
      1_198  22.983187
     1_1980  29.497034
     1_1981  33.093174
     1_1982  29.472689
     1_1983  33.194988
     1_1984  33.036186
     1_1985  32.114571
     1_1986  31.447939
     1_1987  29.380127
     1_1988  33.167057
     1_1989  29.436766
      1_199  22.983343
     1_1990  29.323286
     1_1991  29.501677
     1_1992  27.336800
     1_1993  29.408731
     1_1994  29.096651
     1_1995  29.486456
     1_1996  27.412588
     1_1997  31.568913
     1_1998  29.539856
     1_1999  29.551302
        1_2  23.553053
       1_20  24.225924
      1_200  23.516294
     1_2000  28.980368
     1_2001  29.484224
     1_2002  29.562790
     1_2003  28.579208
     1_2004  32.771843
     1_2005  29.500000
     1_2006  29.500000
     1_2007  33.014240
     1_2008  33.094620
     1_2009  33.616066
      1_201  24.028673
     1_2010  27.516651
     1_2011  29.019930
     1_2012  27.599939
     1_2013  29.541182
     1_2014  29.541288
     1_2015  29.572443
     1_2016  28.574539
     1_2017  32.853989
     1_2018  33.184261
     1_2019  29.816751
      1_202  23.314589
     1_2020  28.592434
     1_2021  29.603615
     1_2022  32.945137
     1_2023  32.534962
     1_2024  29.620811
     1_2025  31.806122
     1_2026  28.868504
     1_2027  28.950352
     1_2028  28.896124
     1_2029  29.625780
      1_203  22.307802
     1_2030  29.617838
     1_2031  29.607918
     1_2032  28.568810
     1_2033  32.197258
     1_2034  29.912643
     1_2035  29.613121
     1_2036  27.538393
     1_2037  28.745535
     1_2038  29.311872
     1_2039  33.551968
      1_204  22.463032
     1_2040  34.249706
     1_2041  33.355984
     1_2042  29.504581
     1_2043  27.581877
     1_2044  33.756138
     1_2045  29.556856
     1_2046  32.198544
     1_2047  29.170250
     1_2048  29.487635
     1_2049  29.500000
      1_205  24.013330
     1_2050  27.497395
     1_2051  27.497967
     1_2052  27.499208
     1_2053  29.857559
     1_2054  29.255669
     1_2055  29.497478
     1_2056  29.127132
     1_2057  28.000000
     1_2058  29.198963
     1_2059  30.000000
      1_206  23.036386
     1_2060  27.482254
     1_2061  30.000000
     1_2062  29.163704
     1_2063  33.208420
     1_2064  33.132507
     1_2065  29.547195
     1_2066  29.456406
     1_2067  29.465076
     1_2068  27.491840
     1_2069  30.000000
      1_207  24.041533
     1_2070  29.432510
     1_2071  29.487494
     1_2072  29.626278
     1_2073  42.668209
     1_2074  32.459328
     1_2075  29.461735
     1_2076  29.324816
     1_2077  42.327591
     1_2078  29.424702
     1_2079  42.486217
      1_208  23.883072
     1_2080  29.488762
     1_2081  29.489496
     1_2082  30.000000
     1_2083  30.000000
     1_2084  42.324757
     1_2085  29.490202
     1_2086  29.004084
     1_2087  27.487719
     1_2088  30.044699
     1_2089  29.408194
      1_209  23.901468
     1_2090  29.010113
     1_2091  29.232672
     1_2092  33.031944
     1_2093  27.528994
     1_2094  29.456167
     1_2095  42.875122
     1_2096  29.520584
     1_2097  28.544205
     1_2098  29.063324
     1_2099  29.082052
       1_21  22.556454
      1_210  22.209167
     1_2100  29.960129
     1_2101  30.479172
     1_2102  33.141857
     1_2103  29.976929
     1_2104  29.044548
     1_2105  27.679525
     1_2106  29.951603
     1_2107  29.044943
     1_2108  33.579777
     1_2109  33.414623
      1_211  23.326078
     1_2110  27.698065
     1_2111  30.174385
     1_2112  30.128435
     1_2113  29.991201
     1_2114  29.805801
     1_2115  33.547405
     1_2116  29.608042
     1_2117  29.083063
     1_2118  30.109610
     1_2119  29.628222
      1_212  23.576860
     1_2120  33.201244
     1_2121  29.527870
     1_2122  29.527941
     1_2123  30.162529
     1_2124  29.998732
     1_2125  28.938116
     1_2126  30.183977
     1_2127  30.161604
     1_2128  30.476490
     1_2129  29.398844
      1_213  23.543846
     1_2130  29.953884
     1_2131  32.299809
     1_2132  29.881495
     1_2133  30.046888
     1_2134  30.261545
     1_2135  30.042551
     1_2136  30.025745
     1_2137  29.872557 	;ON MAIN ST
     1_2138  30.398163
     1_2139  33.642014
      1_214  23.452133
     1_2140  30.257872
     1_2141  30.032825
     1_2142  29.500000
     1_2143  27.950151
     1_2144  29.613792
     1_2145  32.549652
     1_2146  29.859461
     1_2147  33.020535
     1_2148  30.038742
     1_2149  30.007740
      1_215  24.120932
     1_2150  28.688768
     1_2151  27.958569
     1_2152  28.605967
     1_2153  30.037458
     1_2154  29.996246
     1_2155  30.360783
     1_2156  30.323362
     1_2157  30.360264
     1_2158  30.316607
     1_2159  30.136057
     1_2160  33.336533
     1_2161  30.478931
     1_2162  29.953375
     1_2163  30.495079
     1_2164  30.156649
     1_2165  34.205109
     1_2166  34.220562
     1_2167  33.151669
     1_2168  30.423258
     1_2169  30.481993
      1_217  24.138906
     1_2170  30.480890
     1_2171  30.243914
     1_2172  29.890184
     1_2173  30.479515
     1_2174  29.960770
     1_2175  29.890520
     1_2176  30.237457
     1_2177  33.409145
     1_2178  30.209579
     1_2179  30.167906