[TITLE]
Converted from Epanet to Staci, case name: nagycenk.spr


[JUNCTIONS]
;ID              	Elev        	Demand      	Pattern         
 node_0          	155.9736    	0.000000    	                	;
 node_1          	152.1959    	0.000000    	                	;
 node_2          	156.9344    	0.000000    	                	;
 node_3          	164.3701    	0.000000    	                	;
 node_4          	152.6258    	0.002917    	                	;
 node_5          	152.5439    	0.001667    	                	;
 node_6          	152.6349    	0.000417    	                	;
 node_7          	149.8299    	0.006667    	                	;
 node_8          	156.8683    	0.000000    	                	;
 node_9          	148.0217    	0.008333    	                	;
 node_10         	148.2977    	0.001250    	                	;
 node_11         	148.6585    	0.000000    	                	;
 node_12         	151.3916    	0.002917    	                	;
 node_13         	152.6689    	0.000833    	                	;
 node_14         	148.0384    	0.002500    	                	;
 node_15         	152.4135    	0.006667    	                	;
 node_16         	149.7868    	0.006250    	                	;
 node_17         	155.7370    	0.002500    	                	;
 node_18         	160.4728    	0.000000    	                	;
 node_19         	154.8323    	0.000000    	                	;
 node_20         	161.7252    	0.000000    	                	;
 node_21         	161.9305    	0.002500    	                	;
 node_22         	164.0437    	0.005000    	                	;
 node_23         	161.9187    	0.006250    	                	;
 node_24         	154.8995    	0.000000    	                	;
 node_25         	159.6999    	0.003750    	                	;
 node_26         	160.2646    	0.000000    	                	;
 node_27         	160.3220    	0.000000    	                	;
 node_28         	159.6902    	0.000000    	                	;
 node_29         	166.2972    	0.000000    	                	;
 node_30         	159.6166    	0.000000    	                	;
 node_31         	155.1356    	0.000000    	                	;
 node_32         	155.1650    	0.000000    	                	;
 node_33         	166.5217    	0.000833    	                	;
 node_34         	163.2460    	0.000000    	                	;
 node_35         	162.4206    	0.000000    	                	;
 node_36         	163.2410    	0.000000    	                	;
 node_37         	165.7561    	0.000000    	                	;
 node_38         	164.1932    	0.000000    	                	;
 node_39         	160.1549    	0.000000    	                	;
 node_40         	160.3273    	0.000000    	                	;
 node_41         	165.8707    	0.006250    	                	;
 node_42         	163.0496    	0.000000    	                	;
 node_43         	157.9902    	0.000000    	                	;
 node_44         	148.0774    	0.002917    	                	;
 node_45         	147.7959    	0.005833    	                	;
 node_46         	144.4655    	0.000000    	                	;
 node_47         	154.0041    	0.001250    	                	;
 node_48         	157.0606    	0.000417    	                	;
 node_49         	162.9076    	0.000000    	                	;
 node_50         	162.5723    	0.000000    	                	;
 node_51         	157.0300    	0.000000    	                	;
 node_52         	164.8409    	0.000000    	                	;
 node_53         	150.6415    	0.002917    	                	;
 node_54         	148.3690    	0.004167    	                	;
 node_55         	156.4627    	0.000000    	                	;
 node_56         	154.9583    	0.000000    	                	;
 node_57         	164.5419    	0.000000    	                	;
 node_58         	151.6709    	0.000417    	                	;
 node_59         	150.9475    	0.003750    	                	;
 node_60         	152.5663    	0.005000    	                	;
 node_61         	156.9069    	0.005417    	                	;
 node_62         	154.9816    	0.002500    	                	;
 node_63         	156.4203    	0.000000    	                	;
 node_64         	154.5552    	0.000000    	                	;
 node_65         	161.8948    	0.000000    	                	;
 node_66         	161.7887    	0.000000    	                	;
 node_67         	160.5293    	0.000000    	                	;
 node_68         	160.4072    	0.000000    	                	;
 node_69         	165.3428    	0.005417    	                	;
 node_70         	158.9275    	0.000000    	                	;
 node_71         	160.0641    	0.000000    	                	;
 node_72         	143.5089    	0.001250    	                	;
 node_73         	156.5686    	0.000000    	                	;
 node_74         	155.0183    	0.005417    	                	;
 node_75         	152.6638    	0.000833    	                	;
 node_76         	159.1433    	0.001667    	                	;
 node_77         	154.2624    	0.003333    	                	;
 node_78         	155.9768    	0.005833    	                	;
 node_79         	148.7202    	0.002500    	                	;
 node_80         	151.2213    	0.003333    	                	;
 node_81         	160.7464    	0.000000    	                	;
 node_82         	163.6486    	0.000000    	                	;
 node_83         	160.3610    	0.000000    	                	;
 node_84         	153.8427    	0.003333    	                	;
 node_85         	147.0553    	0.000833    	                	;
 node_86         	159.1152    	0.000000    	                	;
 node_87         	159.6168    	0.001667    	                	;
 node_88         	152.2011    	0.000000    	                	;
 node_89         	166.8019    	0.000000    	                	;
 node_90         	155.5858    	0.000000    	                	;
 node_91         	148.2633    	0.003333    	                	;
 node_92         	152.4627    	0.002500    	                	;
 node_93         	151.1899    	0.000000    	                	;
 node_94         	148.2793    	0.000000    	                	;
 node_95         	164.9785    	0.000000    	                	;
 node_96         	157.5821    	0.000000    	                	;
 node_97         	165.4837    	0.000000    	                	;
 node_98         	156.1756    	0.000000    	                	;
 node_99         	163.9143    	0.000000    	                	;
 node_100        	158.1617    	0.000000    	                	;
 node_101        	143.9475    	0.001667    	                	;
 node_102        	158.4082    	0.003333    	                	;
 node_103        	163.1336    	0.000000    	                	;
 node_104        	155.6759    	0.000000    	                	;
 node_105        	161.7227    	0.000000    	                	;
 node_106        	150.8186    	0.004167    	                	;
 node_107        	152.9892    	0.005417    	                	;
 node_108        	151.6304    	0.000000    	                	;
 node_109        	148.0630    	0.006250    	                	;
 node_110        	151.3522    	0.002500    	                	;
 node_111        	164.2548    	0.004167    	                	;
 node_112        	164.8038    	0.000000    	                	;
 node_113        	164.0239    	0.000000    	                	;
 node_114        	165.4173    	0.000000    	                	;
 node_115        	164.4888    	0.000000    	                	;
 node_116        	166.1219    	0.000000    	                	;
 node_117        	161.5858    	0.006667    	                	;
 node_118        	144.4307    	0.002917    	                	;
 node_119        	148.0113    	0.000000    	                	;
 node_120        	148.7033    	0.001250    	                	;
 node_121        	156.5828    	0.000000    	                	;
 node_122        	162.6369    	0.002917    	                	;
 node_123        	164.4078    	0.000000    	                	;
 node_124        	144.4734    	0.002083    	                	;
 node_125        	145.9885    	0.002500    	                	;
 node_126        	165.2437    	0.000000    	                	;
 node_127        	153.5306    	0.000417    	                	;
 node_128        	155.9968    	0.001667    	                	;
 node_129        	151.9753    	0.000417    	                	;
 node_130        	152.0565    	0.002917    	                	;
 node_131        	156.0867    	0.013750    	                	;
 node_132        	151.3201    	0.005000    	                	;
 node_133        	160.0283    	0.000000    	                	;
 node_134        	160.2824    	0.000000    	                	;
 node_135        	158.3018    	0.000833    	                	;
 node_136        	159.3007    	0.000000    	                	;
 node_137        	148.1434    	0.001250    	                	;
 node_138        	143.6026    	0.000417    	                	;
 node_139        	160.7199    	0.000000    	                	;
 node_140        	153.4274    	0.006250    	                	;
 node_141        	163.5663    	0.000000    	                	;
 node_142        	161.8614    	0.000000    	                	;
 node_143        	159.7222    	0.000000    	                	;
 node_144        	166.2731    	0.000000    	                	;
 node_145        	145.7835    	0.000000    	                	;
 node_146        	163.1060    	0.000000    	                	;
 node_147        	149.4817    	0.006250    	                	;
 node_148        	154.2203    	0.000000    	                	;
 node_149        	154.9170    	0.000000    	                	;
 node_150        	154.8947    	0.000000    	                	;
 node_151        	163.1271    	0.000000    	                	;
 node_152        	160.0835    	0.000000    	                	;
 node_153        	144.5978    	0.001667    	                	;
 node_154        	155.3226    	0.002083    	                	;
 node_155        	154.9902    	0.000000    	                	;
 node_156        	154.1158    	0.000000    	                	;
 node_157        	156.0341    	0.000000    	                	;
 node_158        	148.2109    	0.005833    	                	;
 node_159        	161.0478    	0.000000    	                	;
 node_160        	166.1985    	0.000000    	                	;
 node_161        	154.8634    	0.003750    	                	;
 node_162        	160.0445    	0.000000    	                	;
 node_163        	155.9801    	0.000000    	                	;
 node_164        	152.4973    	0.007083    	                	;
 node_165        	160.7215    	0.002500    	                	;
 node_166        	143.9479    	0.002917    	                	;
 node_167        	158.9632    	0.000833    	                	;
 node_168        	153.0359    	0.002083    	                	;
 node_169        	162.0885    	0.005417    	                	;
 node_170        	159.6167    	0.000000    	                	;
 node_171        	153.3063    	0.007083    	                	;
 node_172        	160.6596    	0.000000    	                	;
 node_173        	155.4271    	0.000000    	                	;
 node_174        	158.6524    	0.000000    	                	;
 node_175        	147.6985    	0.000000    	                	;
 node_176        	155.7916    	0.003750    	                	;
 node_177        	166.3039    	0.000000    	                	;
 node_178        	155.9262    	0.001667    	                	;
 node_179        	157.0159    	0.015833    	                	;
 node_180        	155.4347    	0.001667    	                	;
 node_181        	157.1070    	0.000000    	                	;
 node_182        	159.8274    	0.000000    	                	;
 node_183        	155.5885    	0.000000    	                	;
 node_184        	155.9756    	0.000000    	                	;
 node_185        	144.8729    	0.005000    	                	;
 node_186        	144.2620    	0.000000    	                	;
 node_187        	149.5155    	0.000000    	                	;
 node_188        	157.8766    	0.000000    	                	;
 node_189        	155.0664    	0.000000    	                	;
 node_190        	147.6715    	0.000417    	                	;
 node_191        	151.1033    	0.003750    	                	;
 node_192        	148.3830    	0.002500    	                	;
 node_193        	148.2160    	0.002917    	                	;
 node_194        	150.0688    	0.009167    	                	;
 node_195        	152.3883    	0.001667    	                	;
 node_196        	162.0599    	0.000000    	                	;
 node_197        	162.9702    	0.000000    	                	;
 node_198        	162.5909    	0.000000    	                	;
 node_199        	160.7627    	0.000000    	                	;
 node_200        	160.4354    	0.000000    	                	;
 node_201        	159.6820    	0.000000    	                	;
 node_202        	160.3312    	0.000000    	                	;
 node_203        	160.2032    	0.000000    	                	;
 node_204        	155.8814    	0.000000    	                	;
 node_205        	159.9902    	0.000000    	                	;
 node_206        	166.2984    	0.000000    	                	;
 node_207        	160.2891    	0.000000    	                	;
 node_208        	160.4298    	0.000000    	                	;
 node_209        	155.3001    	0.000000    	                	;
 node_210        	158.1903    	0.000417    	                	;
 node_211        	160.4613    	0.000000    	                	;
 node_212        	163.1256    	0.000000    	                	;
 node_213        	162.7274    	0.000000    	                	;
 node_214        	164.9977    	0.000000    	                	;
 node_215        	165.0137    	0.000000    	                	;
 node_216        	156.4651    	0.000000    	                	;
 node_217        	166.1216    	0.000000    	                	;
 node_218        	163.1154    	0.000000    	                	;
 node_219        	163.2750    	0.000000    	                	;
 node_220        	157.4497    	0.000000    	                	;
 node_221        	159.7017    	0.000000    	                	;
 node_222        	146.0462    	0.004167    	                	;
 node_223        	148.4070    	0.000417    	                	;
 node_224        	143.5206    	0.002500    	                	;
 node_225        	146.9987    	0.008750    	                	;
 node_226        	144.4838    	0.000417    	                	;
 node_227        	144.4917    	0.000417    	                	;
 node_228        	147.1674    	0.003333    	                	;
 node_229        	156.3331    	0.002500    	                	;
 node_230        	152.6834    	0.000417    	                	;
 node_231        	155.2505    	0.003750    	                	;
 node_232        	148.6252    	0.000000    	                	;
 node_233        	161.0513    	0.000000    	                	;
 node_234        	156.8331    	0.000000    	                	;
 node_235        	156.9718    	0.000000    	                	;
 node_236        	165.9187    	0.000000    	                	;
 node_237        	147.6120    	0.002083    	                	;
 node_238        	152.8174    	0.007083    	                	;
 node_239        	155.1284    	0.000000    	                	;
 node_240        	166.3218    	0.000000    	                	;
 node_241        	147.5392    	0.000000    	                	;
 node_242        	155.8650    	0.002500    	                	;
 node_243        	151.7075    	0.001250    	                	;
 node_244        	152.7239    	0.003333    	                	;
 node_245        	154.2640    	0.001250    	                	;
 node_246        	165.4737    	0.000000    	                	;
 node_247        	166.2729    	0.003333    	                	;
 node_248        	164.7193    	0.000000    	                	;
 node_249        	159.6880    	0.010417    	                	;
 node_250        	166.1521    	0.000000    	                	;
 node_251        	162.3256    	0.000000    	                	;
 node_252        	164.9579    	0.000000    	                	;
 node_253        	158.0242    	0.000000    	                	;
 node_254        	150.3746    	0.003333    	                	;
 node_255        	157.4987    	0.002917    	                	;
 node_256        	154.2528    	0.009167    	                	;
 node_257        	164.9933    	0.000000    	                	;
 node_258        	151.5261    	0.000833    	                	;
 node_259        	166.3159    	0.000000    	                	;
 node_260        	144.4087    	0.005000    	                	;
 node_261        	147.0320    	0.000000    	                	;
 node_262        	152.9805    	0.000000    	                	;
 node_263        	155.5085    	0.002917    	                	;
 node_264        	152.0040    	0.004583    	                	;
 node_265        	156.5919    	0.006667    	                	;
 node_266        	164.5558    	0.000000    	                	;
 node_267        	165.1401    	0.000000    	                	;
 node_268        	155.2557    	0.002083    	                	;
 node_269        	163.0667    	0.000000    	                	;
 node_270        	160.8298    	0.000000    	                	;
 node_271        	160.9004    	0.000000    	                	;
 node_272        	163.8281    	0.000000    	                	;
 node_273        	157.0782    	0.000000    	                	;
 node_274        	159.9186    	0.000000    	                	;
 node_275        	159.4929    	0.000000    	                	;
 node_276        	144.4500    	0.002083    	                	;
 node_277        	163.0554    	0.000000    	                	;
 node_278        	159.2879    	0.000833    	                	;
 node_279        	150.8719    	0.001667    	                	;
 node_280        	166.0595    	0.003333    	                	;
 node_281        	163.2595    	0.000000    	                	;
 node_282        	159.6993    	0.000000    	                	;
 node_283        	163.1354    	0.000000    	                	;
 node_284        	152.5107    	0.001667    	                	;
 node_285        	152.7936    	0.002083    	                	;
 node_286        	159.0735    	0.003750    	                	;
 node_287        	155.3964    	0.000833    	                	;
 node_288        	148.6631    	0.007083    	                	;
 node_289        	160.7727    	0.000000    	                	;
 node_290        	161.9025    	0.000000    	                	;
 node_291        	161.0094    	0.000000    	                	;
 node_292        	158.2669    	0.000000    	                	;
 node_293        	153.9691    	0.003750    	                	;
 node_294        	163.5803    	0.000000    	                	;
 node_295        	159.3002    	0.000000    	                	;
 node_296        	157.6896    	0.000000    	                	;
 node_297        	143.9706    	0.001250    	                	;
 node_298        	164.5439    	0.000000    	                	;
 node_299        	154.0829    	0.001250    	                	;
 node_300        	148.5584    	0.000000    	                	;
 node_301        	155.7405    	0.000000    	                	;
 node_302        	158.7106    	0.000000    	                	;
 node_303        	166.5586    	0.000000    	                	;
 node_304        	161.7182    	0.000000    	                	;
 node_305        	151.3447    	0.003333    	                	;
 node_306        	154.1273    	0.002500    	                	;
 node_307        	158.9341    	0.002917    	                	;
 node_308        	152.1102    	0.000833    	                	;
 node_309        	155.2579    	0.005417    	                	;
 node_310        	163.3362    	0.000000    	                	;
 node_311        	166.5320    	0.000000    	                	;
 node_312        	164.7821    	0.000000    	                	;
 node_313        	164.0571    	0.000000    	                	;
 node_314        	160.2322    	0.002917    	                	;
 node_315        	159.0664    	0.001667    	                	;
 node_316        	164.8903    	0.000000    	                	;
 node_317        	154.8909    	0.000000    	                	;
 node_318        	160.2928    	0.000000    	                	;
 node_319        	156.2997    	0.000000    	                	;
 node_320        	165.9046    	0.000000    	                	;
 node_321        	157.2273    	0.000000    	                	;
 node_322        	147.3747    	0.000000    	                	;
 node_323        	143.5046    	0.000000    	                	;
 node_324        	157.5346    	0.004167    	                	;
 node_325        	147.3627    	0.004167    	                	;
 node_326        	143.9620    	0.002083    	                	;
 node_327        	161.7048    	0.000000    	                	;
 node_328        	154.5713    	0.000000    	                	;
 node_329        	160.8478    	0.000000    	                	;
 node_330        	150.0295    	0.000000    	                	;
 node_331        	150.7247    	0.000000    	                	;
 node_332        	152.6757    	0.000417    	                	;
 node_333        	158.2177    	0.000000    	                	;
 node_334        	160.5981    	0.000000    	                	;
 node_335        	153.7735    	0.000833    	                	;
 node_336        	163.8949    	0.000000    	                	;
 node_337        	159.6212    	0.005000    	                	;
 node_338        	148.5420    	0.002500    	                	;
 node_339        	159.9985    	0.002500    	                	;
 node_340        	152.7800    	0.010833    	                	;
 node_341        	165.2937    	0.000000    	                	;
 node_342        	158.4486    	0.003750    	                	;
 node_343        	158.2890    	0.000000    	                	;
 node_344        	152.1180    	0.000000    	                	;
 node_345        	146.0622    	0.000000    	                	;
 node_346        	166.1728    	0.000000    	                	;
 node_347        	166.3243    	0.000000    	                	;
 node_348        	155.9281    	0.001667    	                	;
 node_349        	148.7193    	0.007917    	                	;
 node_350        	166.1504    	0.000000    	                	;
 node_351        	161.8257    	0.000000    	                	;
 node_352        	160.2709    	0.000000    	                	;
 node_353        	159.7040    	0.000000    	                	;
 node_354        	147.5453    	0.005417    	                	;
 node_355        	162.9185    	0.000000    	                	;
 node_356        	162.2993    	0.000000    	                	;
 node_357        	148.4043    	0.001667    	                	;
 node_358        	166.1586    	0.000000    	                	;
 node_359        	156.6183    	0.000000    	                	;
 node_360        	163.6999    	0.000000    	                	;
 node_361        	151.2912    	0.000000    	                	;
 node_362        	162.2448    	0.000000    	                	;
 node_363        	159.7437    	0.007083    	                	;
 node_364        	160.0050    	0.024583    	                	;
 node_365        	165.0600    	0.000000    	                	;
 node_366        	159.8390    	0.000833    	                	;
 node_367        	163.2497    	0.000000    	                	;
 node_368        	144.4418    	0.000000    	                	;
 node_369        	165.6752    	0.000000    	                	;
 node_370        	162.5111    	0.000000    	                	;
 node_371        	157.4851    	0.000000    	                	;
 node_372        	144.4602    	0.000000    	                	;
 node_373        	148.5771    	0.010000    	                	;
 node_374        	153.0776    	0.000000    	                	;
 node_375        	162.2765    	0.000000    	                	;
 node_376        	157.5680    	0.000000    	                	;
 node_377        	147.3383    	0.000000    	                	;
 node_378        	148.3223    	0.004167    	                	;
 node_379        	143.8524    	0.007083    	                	;
 node_380        	153.3404    	0.004583    	                	;
 node_381        	162.9102    	0.000000    	                	;
 node_382        	164.7313    	0.000000    	                	;
 node_383        	148.0069    	0.004583    	                	;
 node_384        	158.3930    	0.000000    	                	;
 node_385        	160.2326    	0.002917    	                	;
 node_386        	165.8235    	0.000000    	                	;
 node_387        	152.6697    	0.006250    	                	;
 node_388        	150.3033    	0.003333    	                	;
 node_389        	164.2533    	0.000000    	                	;
 node_390        	143.5808    	0.002500    	                	;
 node_391        	151.2213    	0.004583    	                	;
 node_392        	159.6780    	0.000000    	                	;
 node_393        	166.2900    	0.000000    	                	;
 node_394        	160.5535    	0.000000    	                	;
 node_395        	165.1135    	0.007917    	                	;
 node_396        	152.8937    	0.004583    	                	;
 node_397        	149.5623    	0.002917    	                	;
 node_398        	163.3789    	0.001250    	                	;
 node_399        	148.6432    	0.000000    	                	;
 node_400        	150.0696    	0.000000    	                	;
 node_401        	148.1071    	0.000000    	                	;
 node_402        	161.8387    	0.000000    	                	;
 node_403        	164.9310    	0.000000    	                	;
 node_404        	166.3303    	0.000000    	                	;
 node_405        	165.3910    	0.000000    	                	;
 node_406        	144.4324    	0.003333    	                	;
 node_407        	144.4965    	0.000000    	                	;
 node_408        	150.8047    	0.002083    	                	;
 node_409        	152.4707    	0.006667    	                	;
 node_410        	153.9319    	0.000000    	                	;
 node_411        	152.8304    	0.002083    	                	;
 node_412        	148.2281    	0.001250    	                	;
 node_413        	155.8474    	0.002083    	                	;
 node_414        	156.4422    	0.005417    	                	;
 node_415        	152.5576    	0.005000    	                	;
 node_416        	152.1221    	0.000000    	                	;
 node_417        	156.4616    	0.000000    	                	;
 node_418        	156.7340    	0.007917    	                	;
 node_419        	152.6881    	0.002917    	                	;
 node_420        	155.8019    	0.002917    	                	;
 node_421        	156.1087    	0.002500    	                	;
 node_422        	158.2955    	0.000000    	                	;
 node_423        	165.4771    	0.000000    	                	;
 node_424        	166.2718    	0.000000    	                	;
 node_425        	161.6185    	0.000833    	                	;
 node_426        	156.3884    	0.027083    	                	;
 node_427        	153.8536    	0.009167    	                	;
 node_428        	164.4071    	0.000000    	                	;
 node_429        	159.6911    	0.003333    	                	;
 node_430        	166.4999    	0.000000    	                	;
 node_431        	166.2813    	0.000000    	                	;
 node_432        	158.6856    	0.000000    	                	;
 node_433        	164.3912    	0.000000    	                	;
 node_434        	162.7647    	0.000000    	                	;
 node_435        	161.3791    	0.000000    	                	;
 node_436        	161.9528    	0.000000    	                	;
 node_437        	146.9941    	0.002500    	                	;
 node_438        	144.4688    	0.000000    	                	;
 node_439        	156.9429    	0.000000    	                	;
 node_440        	144.5390    	0.000000    	                	;
 node_441        	155.4893    	0.000833    	                	;
 node_442        	153.8946    	0.000000    	                	;
 node_443        	166.2900    	0.000000    	                	;
 node_444        	164.6131    	0.000000    	                	;
 node_445        	161.2414    	0.000000    	                	;
 node_446        	146.9716    	0.000000    	                	;
 node_447        	148.3636    	0.003333    	                	;
 node_448        	150.5634    	0.003333    	                	;
 node_449        	159.3008    	0.000000    	                	;
 node_450        	142.8801    	0.000000    	                	;
 node_451        	146.9663    	0.000000    	                	;
 node_452        	148.3695    	0.000000    	                	;
 node_453        	154.8171    	0.000000    	                	;
 node_454        	144.8510    	0.000000    	                	;
 node_455        	153.7899    	0.002917    	                	;
 node_456        	158.8205    	0.013750    	                	;
 node_457        	148.5569    	0.000000    	                	;
 node_458        	148.2090    	0.000000    	                	;
 node_459        	152.6960    	0.004167    	                	;
 node_460        	157.3899    	0.001667    	                	;
 node_461        	155.1950    	0.006667    	                	;
 node_462        	161.4689    	0.004167    	                	;
 node_463        	155.7411    	0.000000    	                	;
 node_464        	159.3015    	0.000000    	                	;
 node_465        	162.6989    	0.000000    	                	;
 node_466        	162.8705    	0.000000    	                	;
 node_467        	158.0084    	0.017083    	                	;
 node_468        	157.7363    	0.000000    	                	;
 node_469        	148.5633    	0.004167    	                	;
 node_470        	147.4572    	0.003333    	                	;
 node_471        	144.6042    	0.008750    	                	;
 node_472        	152.4774    	0.000833    	                	;