[TITLE]
Converted from Epanet to Staci, case name: sanchegy.spr


[JUNCTIONS]
;ID              	Elev        	Demand      	Pattern         
 node_0          	234.0376    	0.000000    	                	;
 node_1          	253.4585    	0.000000    	                	;
 node_2          	244.8307    	0.002500    	                	;
 node_3          	264.0687    	0.005417    	                	;
 node_4          	260.8314    	0.000000    	                	;
 node_5          	250.8847    	0.000000    	                	;
 node_6          	237.2516    	0.073333    	                	;
 node_7          	243.5643    	0.000833    	                	;
 node_8          	245.0289    	0.000000    	                	;
 node_9          	270.7895    	0.000000    	                	;
 node_10         	241.0336    	0.000000    	                	;
 node_11         	246.0042    	0.004167    	                	;
 node_12         	258.5151    	0.016250    	                	;
 node_13         	249.7060    	0.017917    	                	;
 node_14         	240.6209    	0.006667    	                	;
 node_15         	247.9310    	0.005417    	                	;
 node_16         	244.5005    	0.004167    	                	;
 node_17         	259.1850    	0.002500    	                	;
 node_18         	245.0379    	0.001667    	                	;
 node_19         	249.3701    	0.001250    	                	;
 node_20         	239.5876    	0.000833    	                	;
 node_21         	255.7300    	0.002500    	                	;
 node_22         	239.0673    	0.009167    	                	;
 node_23         	261.0218    	0.006667    	                	;
 node_24         	249.3969    	0.007083    	                	;
 node_25         	244.3308    	0.001250    	                	;
 node_26         	249.0680    	0.002083    	                	;
 node_27         	255.8426    	0.007083    	                	;
 node_28         	249.2533    	0.000833    	                	;
 node_29         	245.3590    	0.009583    	                	;
 node_30         	231.5316    	0.001250    	                	;
 node_31         	248.0359    	0.028333    	                	;
 node_32         	265.7559    	0.003750    	                	;
 node_33         	242.9000    	0.004167    	                	;
 node_34         	249.4778    	0.000417    	                	;
 node_35         	257.5646    	0.012083    	                	;
 node_36         	265.5809    	0.012083    	                	;
 node_37         	265.6992    	0.007917    	                	;
 node_38         	244.3178    	0.010000    	                	;
 node_39         	243.5143    	0.002083    	                	;
 node_40         	251.7014    	0.002917    	                	;
 node_41         	243.7937    	0.002917    	                	;
 node_42         	250.1982    	0.011250    	                	;
 node_43         	250.8521    	0.013333    	                	;
 node_44         	252.3072    	0.016667    	                	;
 node_45         	244.5301    	0.007917    	                	;
 node_46         	243.5913    	0.001250    	                	;
 node_47         	243.6128    	0.009167    	                	;
 node_48         	243.3944    	0.002500    	                	;
 node_49         	257.9442    	0.009583    	                	;
 node_50         	270.6648    	0.000417    	                	;
 node_51         	245.3454    	0.012083    	                	;
 node_52         	242.8738    	0.003750    	                	;
 node_53         	249.4229    	0.015417    	                	;
 node_54         	255.7773    	0.011250    	                	;
 node_55         	237.4395    	0.003750    	                	;
 node_56         	258.9751    	0.000000    	                	;
 node_57         	252.8607    	0.018750    	                	;
 node_58         	249.2032    	0.003333    	                	;
 node_59         	248.9708    	0.010833    	                	;
 node_60         	258.3869    	0.012083    	                	;
 node_61         	241.5639    	0.021250    	                	;
 node_62         	243.7766    	0.010000    	                	;
 node_63         	266.8445    	0.000000    	                	;
 node_64         	230.6764    	0.006250    	                	;
 node_65         	234.8791    	0.000417    	                	;
 node_66         	254.4628    	0.035000    	                	;
 node_67         	242.6998    	0.005000    	                	;
 node_68         	241.1155    	0.004167    	                	;
 node_69         	258.5876    	0.032083    	                	;
 node_70         	243.4127    	0.007500    	                	;
 node_71         	232.7861    	0.012083    	                	;
 node_72         	241.3562    	0.005000    	                	;
 node_73         	250.4413    	0.004583    	                	;
 node_74         	234.1190    	0.006250    	                	;
 node_75         	247.6825    	0.012500    	                	;
 node_76         	242.2070    	0.002917    	                	;
 node_77         	247.1836    	0.005417    	                	;
 node_78         	242.1983    	0.003750    	                	;
 node_79         	252.3163    	0.016667    	                	;
 node_80         	257.9969    	0.000000    	                	;
 node_81         	238.3227    	0.006250    	                	;
 node_82         	239.7478    	0.001250    	                	;
 node_83         	246.8773    	0.008333    	                	;
 node_84         	242.7400    	0.007500    	                	;
 node_85         	244.2921    	0.005833    	                	;
 node_86         	242.8775    	0.010833    	                	;
 node_87         	255.8362    	0.000000    	                	;
 node_88         	246.5337    	0.005000    	                	;
 node_89         	250.7992    	0.000000    	                	;
 node_90         	243.0739    	0.004583    	                	;
 node_91         	244.8265    	0.004167    	                	;
 node_92         	240.2051    	0.025000    	                	;
 node_93         	244.3398    	0.010417    	                	;
 node_94         	234.7316    	0.002917    	                	;
 node_95         	250.8347    	0.024167    	                	;
 node_96         	238.8660    	0.002083    	                	;
 node_97         	238.5929    	0.001250    	                	;
 node_98         	231.5758    	0.000000    	                	;
 node_99         	242.7953    	0.002500    	                	;
 node_100        	252.9720    	0.010833    	                	;
 node_101        	248.7791    	0.002917    	                	;
 node_102        	254.7697    	0.002500    	                	;
 node_103        	250.1952    	0.001250    	                	;
 node_104        	257.4080    	0.002917    	                	;
 node_105        	237.6540    	0.001667    	                	;
 node_106        	255.5904    	0.006667    	                	;
 node_107        	249.1210    	0.012917    	                	;
 node_108        	251.4168    	0.004583    	                	;
 node_109        	243.4592    	0.019167    	                	;
 node_110        	245.4852    	0.009167    	                	;
 node_111        	243.8149    	0.005000    	                	;
 node_112        	248.7907    	0.000000    	                	;
 node_113        	246.1396    	0.006250    	                	;
 node_114        	246.2786    	0.002500    	                	;
 node_115        	250.9587    	0.004167    	                	;
 node_116        	256.7729    	0.001667    	                	;
 node_117        	235.2954    	0.006667    	                	;
 node_118        	258.2061    	0.008333    	                	;
 node_119        	246.6587    	0.004583    	                	;
 node_120        	244.8263    	0.001250    	                	;
 node_121        	242.6956    	0.040417    	                	;
 node_122        	245.5356    	0.005833    	                	;
 node_123        	256.8862    	0.002083    	                	;
 node_124        	231.8697    	0.009583    	                	;
 node_125        	238.4182    	0.008750    	                	;
 node_126        	271.1103    	0.005000    	                	;
 node_127        	271.1095    	0.002083    	                	;
 node_128        	260.7093    	0.000000    	                	;
 node_129        	260.9303    	0.003333    	                	;
 node_130        	245.5229    	0.010000    	                	;
 node_131        	247.4989    	0.017917    	                	;
 node_132        	259.0806    	0.000417    	                	;
 node_133        	253.5495    	0.007500    	                	;
 node_134        	232.4140    	0.002500    	                	;
 node_135        	246.6665    	0.000000    	                	;
 node_136        	240.7565    	0.002500    	                	;
 node_137        	233.6323    	0.007083    	                	;
 node_138        	243.2707    	0.002917    	                	;
 node_139        	244.3912    	0.000833    	                	;
 node_140        	248.7544    	0.000833    	                	;
 node_141        	251.3605    	0.016250    	                	;
 node_142        	231.5196    	0.060833    	                	;
 node_143        	235.1787    	0.002083    	                	;
 node_144        	250.5180    	0.000000    	                	;
 node_145        	256.4750    	0.000000    	                	;
 node_146        	235.5493    	0.003333    	                	;
 node_147        	241.3366    	0.007500    	                	;
 node_148        	260.7173    	0.000417    	                	;
 node_149        	234.9307    	0.005417    	                	;
 node_150        	249.0755    	0.000417    	                	;
 node_151        	262.5252    	0.003333    	                	;
 node_152        	252.4477    	0.000000    	                	;
 node_153        	242.6591    	0.004167    	                	;
 node_154        	232.1496    	0.004167    	                	;
 node_155        	259.6445    	0.003333    	                	;
 node_156        	259.1066    	0.011250    	                	;
 node_157        	252.1164    	0.026667    	                	;
 node_158        	234.9656    	0.000833    	                	;
 node_159        	232.8164    	0.009167    	                	;
 node_160        	256.3514    	0.005417    	                	;
 node_161        	236.2891    	0.025833    	                	;
 node_162        	250.3625    	0.009167    	                	;
 node_163        	247.6175    	0.000000    	                	;
 node_164        	248.4697    	0.005833    	                	;
 node_165        	269.6169    	0.005833    	                	;
 node_166        	244.8503    	0.005000    	                	;
 node_167        	236.4079    	0.005833    	                	;
 node_168        	255.8621    	0.006250    	                	;
 node_169        	249.9215    	0.000000    	                	;
 node_170        	230.3919    	0.002083    	                	;
 node_171        	239.0019    	0.003333    	                	;
 node_172        	257.9960    	0.000000    	                	;
 node_173        	259.2732    	0.006667    	                	;
 node_174        	246.6848    	0.003750    	                	;
 node_175        	249.9619    	0.012083    	                	;
 node_176        	258.6538    	0.004167    	                	;
 node_177        	238.2590    	0.000000    	                	;
 node_178        	259.2327    	0.004583    	                	;
 node_179        	247.8866    	0.000000    	                	;
 node_180        	273.4787    	0.003333    	                	;
 node_181        	255.0609    	0.007500    	                	;
 node_182        	265.8055    	0.003750    	                	;
 node_183        	269.2040    	0.003333    	                	;
 node_184        	239.4257    	0.004167    	                	;
 node_185        	243.3860    	0.005833    	                	;
 node_186        	260.2549    	0.008750    	                	;
 node_187        	259.2483    	0.000833    	                	;
 node_188        	257.1529    	0.012500    	                	;
 node_189        	243.8841    	0.000000    	                	;
 node_190        	251.2275    	0.015833    	                	;
 node_191        	245.3090    	0.005000    	                	;
 node_192        	232.3431    	0.005417    	                	;
 node_193        	258.4334    	0.006667    	                	;
 node_194        	261.6717    	0.000000    	                	;
 node_195        	246.8974    	0.000000    	                	;
 node_196        	260.6725    	0.005833    	                	;
 node_197        	243.9904    	0.000833    	                	;
 node_198        	245.1262    	0.005417    	                	;
 node_199        	237.3912    	0.002500    	                	;
 node_200        	242.3365    	0.003333    	                	;
 node_201        	249.3259    	0.008750    	                	;
 node_202        	249.5509    	0.010417    	                	;
 node_203        	259.8485    	0.003750    	                	;
 node_204        	246.3849    	0.012917    	                	;
 node_205        	249.5078    	0.002500    	                	;
 node_206        	242.9273    	0.002500    	                	;
 node_207        	242.7125    	0.000000    	                	;
 node_208        	262.9798    	0.006667    	                	;
 node_209        	241.0237    	0.001667    	                	;
 node_210        	259.8252    	0.006250    	                	;
 node_211        	244.6075    	0.000000    	                	;
 node_212        	249.3947    	0.007917    	                	;
 node_213        	244.3454    	0.005417    	                	;
 node_214        	249.4158    	0.008333    	                	;
 node_215        	234.6550    	0.002500    	                	;
 node_216        	242.3800    	0.005417    	                	;
 node_217        	243.2980    	0.001250    	                	;
 node_218        	246.5232    	0.009583    	                	;
 node_219        	232.5524    	0.000833    	                	;
 node_220        	255.1517    	0.008750    	                	;
 node_221        	256.7699    	0.000417    	                	;
 node_222        	252.3198    	0.000833    	                	;
 node_223        	240.7705    	0.004583    	                	;
 node_224        	235.7679    	0.002500    	                	;
 node_225        	250.8054    	0.000000    	                	;
 node_226        	250.5382    	0.000000    	                	;
 node_227        	253.3856    	0.003333    	                	;
 node_228        	250.3264    	0.000000    	                	;
 node_229        	247.9523    	0.003333    	                	;
 node_230        	263.0469    	0.000833    	                	;
 node_231        	253.9164    	0.000000    	                	;
 node_232        	245.5568    	0.007083    	                	;
 node_233        	243.6128    	0.002083    	                	;
 node_234        	252.8679    	0.004167    	                	;
 node_235        	242.6851    	0.002083    	                	;
 node_236        	241.9307    	0.000833    	                	;
 node_237        	249.5366    	0.003333    	                	;
 node_238        	233.5278    	0.009167    	                	;
 node_239        	257.9447    	0.005833    	                	;
 node_240        	264.1839    	0.005000    	                	;
 node_241        	246.4151    	0.001667    	                	;
 node_242        	233.5959    	0.002917    	                	;
 node_243        	241.1558    	0.003750    	                	;
 node_244        	255.7111    	0.000000    	                	;
 node_245        	259.0307    	0.000000    	                	;
 node_246        	253.4680    	0.000000    	                	;
 node_247        	249.4234    	0.000000    	                	;
 node_248        	250.8288    	0.000833    	                	;
 node_249        	238.8551    	0.000000    	                	;
 node_250        	245.6971    	0.000000    	                	;
 node_251        	239.9476    	0.001250    	                	;
 node_252        	242.7521    	0.000000    	                	;
 node_253        	235.3553    	0.002083    	                	;
 node_254        	242.8428    	0.004583    	                	;
 node_255        	251.2313    	0.000000    	                	;
 node_256        	238.3251    	0.002083    	                	;
 node_257        	265.8284    	0.000000    	                	;
 node_258        	252.9411    	0.002083    	                	;
 node_259        	234.5669    	0.000000    	                	;
 node_260        	260.0388    	0.002917    	                	;
 node_261        	251.4953    	0.014583    	                	;
 node_262        	253.4473    	0.009167    	                	;
 node_263        	240.6114    	0.115000    	                	;
 node_264        	250.8276    	0.003333    	                	;
 node_265        	257.3588    	0.007500    	                	;
 node_266        	249.7414    	0.002917    	                	;
 node_267        	249.5608    	0.000000    	                	;
 node_268        	243.6694    	0.025000    	                	;
 node_269        	253.2994    	0.010000    	                	;
 node_270        	244.3531    	0.003750    	                	;
 node_271        	251.1174    	0.014167    	                	;
 node_272        	247.8767    	0.003333    	                	;
 node_273        	254.8098    	0.011250    	                	;
 node_274        	258.6569    	0.012083    	                	;
 node_275        	260.6901    	0.007917    	                	;
 node_276        	259.0030    	0.004167    	                	;
 node_277        	261.2561    	0.007500    	                	;
 node_278        	271.3855    	0.004583    	                	;
 node_279        	244.4372    	0.005417    	                	;
 node_280        	237.9484    	0.005417    	                	;
 node_281        	248.0745    	0.000833    	                	;
 node_282        	249.6662    	0.014167    	                	;
 node_283        	245.7972    	0.005000    	                	;
 node_284        	271.5541    	0.003750    	                	;
 node_285        	232.1351    	0.003333    	                	;
 node_286        	237.4330    	0.005417    	                	;
 node_287        	262.9196    	0.005833    	                	;
 node_288        	262.1866    	0.002083    	                	;
 node_289        	258.5155    	0.002500    	                	;
 node_290        	252.9317    	0.003750    	                	;
 node_291        	250.2293    	0.005417    	                	;
 node_292        	266.1067    	0.005417    	                	;
 node_293        	267.5234    	0.002083    	                	;
 node_294        	250.8225    	0.000000    	                	;
 node_295        	239.0100    	0.004167    	                	;
 node_296        	243.8170    	0.015417    	                	;
 node_297        	243.5876    	0.004167    	                	;
 node_298        	261.9092    	0.002083    	                	;
 node_299        	254.0456    	0.007500    	                	;
 node_300        	246.4559    	0.011250    	                	;
 node_301        	243.6268    	0.007083    	                	;
 node_302        	223.2269    	0.003333    	                	;
 node_303        	261.1523    	0.010833    	                	;
 node_304        	256.3401    	0.000000    	                	;
 node_305        	246.3132    	0.005417    	                	;
 node_306        	244.2511    	0.002083    	                	;
 node_307        	267.4473    	0.006250    	                	;
 node_308        	253.7873    	0.020417    	                	;
 node_309        	243.5237    	0.000000    	                	;
 node_310        	269.4458    	0.005000    	                	;
 node_311        	248.8496    	0.003333    	                	;
 node_312        	249.7437    	0.002083    	                	;
 node_313        	240.1145    	0.005417    	                	;
 node_314        	262.7382    	0.013333    	                	;
 node_315        	252.1558    	0.002917    	                	;
 node_316        	249.9386    	0.007083    	                	;
 node_317        	234.3156    	0.005000    	                	;
 node_318        	256.1741    	0.001250    	                	;
 node_319        	236.7047    	0.004167    	                	;
 node_320        	242.7261    	0.012500    	                	;
 node_321        	251.0289    	0.013750    	                	;
 node_322        	268.2250    	0.006250    	                	;
 node_323        	252.9190    	0.007500    	                	;
 node_324        	251.9076    	0.005000    	                	;
 node_325        	240.9991    	0.093750    	                	;
 node_326        	258.4251    	0.001250    	                	;
 node_327        	248.7624    	0.000000    	                	;
 node_328        	250.7988    	0.001667    	                	;
 node_329        	247.3927    	0.006250    	                	;
 node_330        	243.1047    	0.001250    	                	;
 node_331        	242.0011    	0.004167    	                	;
 node_332        	249.5844    	0.000000    	                	;
 node_333        	245.5320    	0.002917    	                	;
 node_334        	248.5577    	0.026250    	                	;
 node_335        	259.1289    	0.002917    	                	;
 node_336        	240.9760    	0.002083    	                	;
 node_337        	233.0364    	0.011250    	                	;
 node_338        	255.5905    	0.002083    	                	;
 node_339        	239.2785    	0.008750    	                	;
 node_340        	262.6394    	0.010000    	                	;
 node_341        	259.9976    	0.001667    	                	;
 node_342        	240.3210    	0.003333    	                	;
 node_343        	249.5398    	0.009583    	                	;
 node_344        	243.0331    	0.007917    	                	;
 node_345        	259.3207    	0.007917    	                	;
 node_346        	250.1420    	0.000000    	                	;
 node_347        	255.8746    	0.008750    	                	;
 node_348        	232.4844    	0.004167    	                	;
 node_349        	258.2697    	0.009583    	                	;
 node_350        	259.5394    	0.008333    	                	;
 node_351        	244.9022    	0.007500    	                	;
 node_352        	244.8913    	0.000000    	                	;
 node_353        	246.8595    	0.005833    	                	;
 node_354        	250.2946    	0.002500    	                	;
 node_355        	244.8961    	0.026667    	                	;
 node_356        	242.8791    	0.005833    	                	;
 node_357        	260.6190    	0.006667    	                	;
 node_358        	247.2107    	0.005417    	                	;
 node_359        	239.9475    	0.000000    	                	;
 node_360        	256.0202    	0.004167    	                	;
 node_361        	263.0453    	0.003750    	                	;
 node_362        	261.2851    	0.007083    	                	;
 node_363        	250.6199    	0.000000    	                	;
 node_364        	239.8938    	0.000000    	                	;
 node_365        	242.3826    	0.003750    	                	;
 node_366        	236.4745    	0.002917    	                	;
 node_367        	257.6488    	0.000000    	                	;
 node_368        	247.7810    	0.000000    	                	;
 node_369        	261.4517    	0.002500    	                	;
 node_370        	257.6044    	0.002917    	                	;
 node_371        	248.7788    	0.000417    	                	;
 node_372        	247.1447    	0.000000    	                	;
 node_373        	236.0106    	0.004583    	                	;
 node_374        	265.5261    	0.000833    	                	;
 node_375        	249.4101    	0.000000    	                	;
 node_376        	251.1278    	0.002500    	                	;
 node_377        	245.4027    	0.000000    	                	;
 node_378        	248.9631    	0.010000    	                	;
 node_379        	257.1488    	0.008333    	                	;
 node_380        	243.8099    	0.003750    	                	;
 node_381        	242.7270    	0.002917    	                	;
 node_382        	249.2015    	0.004167    	                	;
 node_383        	248.7249    	0.005417    	                	;
 node_384        	254.2096    	0.005417    	                	;
 node_385        	240.0883    	0.001667    	                	;
 node_386        	251.0359    	0.004167    	                	;
 node_387        	253.3185    	0.005000    	                	;
 node_388        	252.6208    	0.006667    	                	;
 node_389        	256.9621    	0.015000    	                	;
 node_390        	238.6318    	0.012500    	                	;
 node_391        	253.2181    	0.000000    	                	;
 node_392        	263.9439    	0.002500    	                	;
 node_393        	268.6799    	0.003750    	                	;
 node_394        	244.9632    	0.020000    	                	;
 node_395        	233.6342    	0.028333    	                	;
 node_396        	243.7517    	0.001250    	                	;
 node_397        	264.5752    	0.000000    	                	;
 node_398        	242.2487    	0.005833    	                	;
 node_399        	244.4837    	0.012500    	                	;
 node_400        	244.3338    	0.003750    	                	;
 node_401        	270.0925    	0.004167    	                	;
 node_402        	233.6070    	0.001250    	                	;
 node_403        	252.1700    	0.403750    	                	;
 node_404        	250.2805    	0.002083    	                	;
 node_405        	254.3898    	0.001250    	                	;
 node_406        	235.5236    	0.000417    	                	;
 node_407        	247.0942    	0.002917    	                	;
 node_408        	259.9293    	0.002917    	                	;
 node_409        	248.5116    	0.007083    	                	;
 node_410        	244.2672    	0.001250    	                	;
 node_411        	243.4216    	0.001667    	                	;
 node_412        	241.9184    	0.025000    	                	;
 node_413        	257.6912    	0.003333    	                	;
 node_414        	232.9415    	0.020417    	                	;
 node_415        	240.3472    	0.005417    	                	;
 node_416        	253.5073    	0.037917    	                	;
 node_417        	245.5454    	0.008750    	                	;
 node_418        	242.6492    	0.000000    	                	;
 node_419        	261.8246    	0.000000    	                	;
 node_420        	255.8673    	0.000000    	                	;
 node_421        	247.3894    	0.000833    	                	;
 node_422        	244.3813    	0.008750    	                	;
 node_423        	248.5815    	0.024167    	                	;
 node_424        	245.3076    	0.000000    	                	;
 node_425        	235.2004    	0.000000    	                	;
 node_426        	236.7844    	0.000000    	                	;
 node_427        	258.2805    	0.000000    	                	;
 node_428        	248.2309    	0.011250    	                	;
 node_429        	247.2627    	0.041250    	                	;
 node_430        	238.1749    	0.026667    	                	;
 node_431        	270.8709    	0.000000    	                	;
 node_432        	254.3424    	0.017500    	                	;
 node_433        	250.8055    	0.005000    	                	;
 node_434        	242.7195    	0.005000    	                	;
 node_435        	242.7673    	0.004583    	                	;
 node_436        	242.9615    	0.004583    	                	;
 node_437        	249.4727    	0.005833    	                	;
 node_438        	266.6473    	0.000000    	                	;
 node_439        	274.2935    	0.010417    	                	;
 node_440        	244.8489    	0.007083    	                	;
 node_441        	263.9879    	0.004583    	                	;
 node_442        	243.1736    	0.003750    	                	;
 node_443        	247.0651    	0.005000    	                	;
 node_444        	228.2923    	0.002917    	                	;
 node_445        	248.6295    	0.000417    	                	;
 node_446        	241.2782    	0.005417    	                	;
 node_447        	260.1836    	0.000000    	                	;
 node_448        	240.6762    	0.000000    	                	;
 node_449        	250.6877    	0.004167    	                	;
 node_450        	237.9802    	0.007083    	                	;
 node_451        	235.2287    	0.003750    	                	;
 node_452        	254.9341    	0.002500    	                	;
 node_453        	240.4901    	0.004583    	                	;
 node_454        	267.0192    	0.003750    	                	;
 node_455        	246.2667    	0.007917    	                	;
 node_456        	230.8912    	0.000000    	                	;
 node_457        	241.2498    	0.202917    	                	;
 node_458        	259.3843    	0.002500    	                	;
 node_459        	249.9336    	0.008333    	                	;
 node_460        	246.2691    	0.007500    	                	;
 node_461        	264.2119    	0.008750    	                	;
 node_462        	245.3726    	0.006667    	                	;
 node_463        	243.2169    	0.000000    	                	;
 node_464        	246.0329    	0.004583    	                	;
 node_465        	245.2168    	0.004583    	                	;
 node_466        	255.4908    	0.009583    	                	;
 node_467        	252.4606    	0.027917    	                	;
 node_468        	261.8088    	0.002500    	                	;
 node_469        	244.6376    	0.003333    	                	;
 node_470        	270.2219    	0.001250    	                	;
 node_471        	256.6892    	0.007500    	                	;
 node_472        	253.3935    	0.000417    	                	;