[TITLE]
Converted from Epanet to Staci, case name: tomalom.spr


[JUNCTIONS]
;ID              	Elev        	Demand      	Pattern         
 node_0          	152.6890    	0.000000    	                	;
 node_1          	154.7323    	0.000000    	                	;
 node_2          	157.7218    	0.000000    	                	;
 node_3          	155.1790    	0.000000    	                	;
 node_4          	156.9140    	0.002917    	                	;
 node_5          	155.6488    	0.004583    	                	;
 node_6          	157.6115    	0.000417    	                	;
 node_7          	153.4397    	0.000000    	                	;
 node_8          	155.2045    	0.000000    	                	;
 node_9          	156.7989    	0.000833    	                	;
 node_10         	157.2024    	0.002083    	                	;
 node_11         	157.8120    	0.000000    	                	;
 node_12         	154.3828    	0.001250    	                	;
 node_13         	156.1042    	0.003750    	                	;
 node_14         	156.7109    	0.000000    	                	;
 node_15         	158.8043    	0.005417    	                	;
 node_16         	158.3402    	0.000000    	                	;
 node_17         	157.5214    	0.000417    	                	;
 node_18         	166.6187    	0.000000    	                	;
 node_19         	156.1393    	0.002500    	                	;
 node_20         	158.4140    	0.000000    	                	;
 node_21         	159.0552    	0.002917    	                	;
 node_22         	152.5027    	0.000000    	                	;
 node_23         	167.1291    	0.000000    	                	;
 node_24         	156.7179    	0.002500    	                	;
 node_25         	157.3789    	0.001667    	                	;
 node_26         	158.5795    	0.003333    	                	;
 node_27         	157.4092    	0.000417    	                	;
 node_28         	156.4829    	0.000000    	                	;
 node_29         	156.3032    	0.000000    	                	;
 node_30         	157.5348    	0.000000    	                	;
 node_31         	157.2012    	0.000000    	                	;
 node_32         	149.1574    	0.000000    	                	;
 node_33         	157.4644    	0.000000    	                	;
 node_34         	158.7773    	0.014167    	                	;
 node_35         	156.5390    	0.000000    	                	;
 node_36         	156.4091    	0.004167    	                	;
 node_37         	156.2557    	0.000417    	                	;
 node_38         	146.4055    	0.000000    	                	;
 node_39         	165.4713    	0.000000    	                	;
 node_40         	153.6575    	0.000417    	                	;
 node_41         	158.1576    	0.000000    	                	;
 node_42         	155.8364    	0.000000    	                	;
 node_43         	156.9165    	0.007500    	                	;
 node_44         	156.8159    	0.000000    	                	;
 node_45         	157.0538    	0.000000    	                	;
 node_46         	150.5761    	0.004167    	                	;
 node_47         	163.2328    	0.000000    	                	;
 node_48         	157.7272    	0.000000    	                	;
 node_49         	157.6758    	0.000000    	                	;
 node_50         	155.4822    	0.000000    	                	;
 node_51         	156.9535    	0.000000    	                	;
 node_52         	148.5721    	0.000000    	                	;
 node_53         	156.2015    	0.000000    	                	;
 node_54         	157.2659    	0.000417    	                	;
 node_55         	158.0680    	0.000000    	                	;
 node_56         	158.1026    	0.000833    	                	;
 node_57         	157.6281    	0.000000    	                	;
 node_58         	157.1511    	0.001250    	                	;
 node_59         	159.6579    	0.000000    	                	;
 node_60         	158.6189    	0.000833    	                	;
 node_61         	158.7542    	0.007500    	                	;
 node_62         	154.1057    	0.000000    	                	;
 node_63         	155.4599    	0.000000    	                	;
 node_64         	157.7161    	0.000000    	                	;
 node_65         	155.8442    	0.000833    	                	;
 node_66         	154.1240    	0.000000    	                	;
 node_67         	156.8895    	0.002500    	                	;
 node_68         	153.6654    	0.000000    	                	;
 node_69         	157.6448    	0.005417    	                	;
 node_70         	156.8533    	0.000000    	                	;
 node_71         	157.5635    	0.000833    	                	;
 node_72         	158.0899    	0.000000    	                	;
 node_73         	164.8959    	0.000833    	                	;
 node_74         	152.9855    	0.000000    	                	;
 node_75         	157.7877    	0.000417    	                	;
 node_76         	158.0928    	0.000000    	                	;
 node_77         	154.9675    	0.000000    	                	;
 node_78         	157.4263    	0.000417    	                	;
 node_79         	156.6498    	0.000000    	                	;
 node_80         	156.6775    	0.000000    	                	;
 node_81         	157.6236    	0.000833    	                	;
 node_82         	151.4830    	0.000000    	                	;
 node_83         	155.2083    	0.008750    	                	;
 node_84         	158.3165    	0.000000    	                	;
 node_85         	154.2883    	0.002083    	                	;
 node_86         	156.4557    	0.000000    	                	;
 node_87         	157.1743    	0.000417    	                	;
 node_88         	155.6978    	0.000000    	                	;
 node_89         	157.3854    	0.000833    	                	;
 node_90         	156.7608    	0.005417    	                	;
 node_91         	158.0669    	0.010417    	                	;
 node_92         	157.0210    	0.000833    	                	;
 node_93         	156.5902    	0.001250    	                	;
 node_94         	149.2192    	0.000000    	                	;
 node_95         	158.5779    	0.001667    	                	;
 node_96         	156.5385    	0.000000    	                	;
 node_97         	156.2678    	0.005000    	                	;
 node_98         	157.0220    	0.005000    	                	;
 node_99         	157.7258    	0.000000    	                	;
 node_100        	155.1763    	0.002083    	                	;
 node_101        	156.0756    	0.000417    	                	;
 node_102        	156.7128    	0.000417    	                	;
 node_103        	155.9510    	0.002083    	                	;
 node_104        	156.1669    	0.000833    	                	;
 node_105        	157.3822    	0.000000    	                	;
 node_106        	158.6809    	0.000000    	                	;
 node_107        	164.1931    	0.000000    	                	;
 node_108        	152.5915    	0.000000    	                	;
 node_109        	155.2587    	0.004167    	                	;
 node_110        	155.6108    	0.000000    	                	;
 node_111        	159.3031    	0.004167    	                	;
 node_112        	163.6236    	0.007083    	                	;
 node_113        	158.2217    	0.004583    	                	;
 node_114        	156.9657    	0.000000    	                	;
 node_115        	154.3374    	0.000000    	                	;
 node_116        	156.6839    	0.000000    	                	;
 node_117        	158.3257    	0.005000    	                	;
 node_118        	157.0274    	0.000833    	                	;
 node_119        	156.1206    	0.003333    	                	;
 node_120        	157.0431    	0.004167    	                	;
 node_121        	157.6304    	0.000417    	                	;
 node_122        	156.8630    	0.000000    	                	;
 node_123        	155.4661    	0.000000    	                	;
 node_124        	152.6361    	0.008750    	                	;
 node_125        	156.3155    	0.008750    	                	;
 node_126        	157.2521    	0.000417    	                	;
 node_127        	157.1896    	0.002917    	                	;
 node_128        	157.3128    	0.000000    	                	;
 node_129        	157.0389    	0.000000    	                	;
 node_130        	158.2952    	0.003333    	                	;
 node_131        	157.6212    	0.000000    	                	;
 node_132        	158.4331    	0.003333    	                	;
 node_133        	164.5691    	0.002917    	                	;
 node_134        	157.5461    	0.001250    	                	;
 node_135        	158.2218    	0.000000    	                	;
 node_136        	158.4520    	0.008750    	                	;
 node_137        	157.4678    	0.003333    	                	;
 node_138        	156.9792    	0.000833    	                	;
 node_139        	157.6317    	0.000000    	                	;
 node_140        	157.4309    	0.001250    	                	;
 node_141        	157.8458    	0.000417    	                	;
 node_142        	157.3185    	0.002500    	                	;
 node_143        	156.7918    	0.003333    	                	;
 node_144        	158.1324    	0.000000    	                	;
 node_145        	157.6941    	0.005000    	                	;
 node_146        	158.8390    	0.002083    	                	;
 node_147        	156.6974    	0.000000    	                	;
 node_148        	148.6050    	0.006667    	                	;
 node_149        	155.5744    	0.000000    	                	;
 node_150        	151.9772    	0.000000    	                	;
 node_151        	157.3376    	0.000000    	                	;
 node_152        	156.7427    	0.000000    	                	;
 node_153        	157.4546    	0.000000    	                	;
 node_154        	146.0718    	0.003750    	                	;
 node_155        	157.4685    	0.001250    	                	;
 node_156        	158.5186    	0.000000    	                	;
 node_157        	155.6939    	0.000000    	                	;
 node_158        	157.0639    	0.000833    	                	;
 node_159        	154.7143    	0.000000    	                	;
 node_160        	158.8239    	0.001250    	                	;
 node_161        	153.6939    	0.002083    	                	;
 node_162        	155.4675    	0.000000    	                	;
 node_163        	157.9144    	0.000000    	                	;
 node_164        	156.6489    	0.002500    	                	;
 node_165        	157.3839    	0.001250    	                	;
 node_166        	156.3069    	0.002917    	                	;
 node_167        	149.2787    	0.000000    	                	;
 node_168        	146.2719    	0.000000    	                	;
 node_169        	157.6344    	0.001667    	                	;
 node_170        	154.5949    	0.000000    	                	;
 node_171        	153.5326    	0.001667    	                	;
 node_172        	162.5451    	0.002083    	                	;
 node_173        	158.6809    	0.002500    	                	;
 node_174        	158.3494    	0.000833    	                	;
 node_175        	149.3089    	0.000000    	                	;
 node_176        	156.6381    	0.000000    	                	;
 node_177        	156.3767    	0.002500    	                	;
 node_178        	159.0884    	0.000000    	                	;
 node_179        	156.5699    	0.004583    	                	;
 node_180        	158.0502    	0.002500    	                	;
 node_181        	155.7366    	0.000000    	                	;
 node_182        	165.1338    	0.000000    	                	;
 node_183        	156.1404    	0.000000    	                	;
 node_184        	152.4815    	0.001667    	                	;
 node_185        	153.0832    	0.012917    	                	;
 node_186        	149.3148    	0.000000    	                	;
 node_187        	154.8513    	0.001667    	                	;
 node_188        	156.9064    	0.000000    	                	;
 node_189        	157.3885    	0.002500    	                	;
 node_190        	157.2956    	0.003750    	                	;
 node_191        	154.9968    	0.000417    	                	;
 node_192        	156.8813    	0.005833    	                	;
 node_193        	158.1140    	0.000000    	                	;
 node_194        	158.7285    	0.000000    	                	;
 node_195        	156.0784    	0.000000    	                	;
 node_196        	155.7518    	0.003750    	                	;
 node_197        	155.3094    	0.000417    	                	;
 node_198        	155.1989    	0.003750    	                	;
 node_199        	155.9607    	0.002500    	                	;
 node_200        	156.8737    	0.000000    	                	;
 node_201        	163.5166    	0.000000    	                	;
 node_202        	157.7771    	0.000000    	                	;
 node_203        	157.1508    	0.002917    	                	;
 node_204        	158.9807    	0.000000    	                	;
 node_205        	156.8731    	0.000833    	                	;
 node_206        	157.1944    	0.004167    	                	;
 node_207        	157.6165    	0.003333    	                	;
 node_208        	148.3845    	0.001250    	                	;
 node_209        	154.9021    	0.000000    	                	;
 node_210        	157.5672    	0.000000    	                	;
 node_211        	146.2868    	0.000000    	                	;
 node_212        	157.1014    	0.000000    	                	;
 node_213        	156.9331    	0.000000    	                	;
 node_214        	157.9774    	0.003750    	                	;
 node_215        	157.7244    	0.000000    	                	;
 node_216        	155.4742    	0.000000    	                	;
 node_217        	156.8285    	0.003333    	                	;
 node_218        	157.9976    	0.011250    	                	;
 node_219        	165.3577    	0.000000    	                	;
 node_220        	152.0647    	0.002083    	                	;
 node_221        	157.4104    	0.000000    	                	;
 node_222        	157.1513    	0.000000    	                	;
 node_223        	148.0041    	0.003750    	                	;
 node_224        	158.5193    	0.000000    	                	;
 node_225        	158.2835    	0.002500    	                	;
 node_226        	156.7919    	0.000000    	                	;
 node_227        	156.9830    	0.003750    	                	;
 node_228        	157.9995    	0.001250    	                	;
 node_229        	148.0013    	0.000000    	                	;
 node_230        	160.1766    	0.000000    	                	;
 node_231        	157.8947    	0.006667    	                	;
 node_232        	157.1518    	0.000000    	                	;
 node_233        	158.1767    	0.000417    	                	;
 node_234        	157.0271    	0.000417    	                	;
 node_235        	158.7252    	0.000417    	                	;
 node_236        	157.9680    	0.000000    	                	;
 node_237        	156.9708    	0.006250    	                	;
 node_238        	164.1067    	0.017500    	                	;
 node_239        	153.7600    	0.000000    	                	;
 node_240        	153.9129    	0.000833    	                	;
 node_241        	157.2755    	0.002500    	                	;
 node_242        	156.9441    	0.000000    	                	;
 node_243        	146.1270    	0.000000    	                	;
 node_244        	162.0734    	0.002500    	                	;
 node_245        	157.0453    	0.002917    	                	;
 node_246        	158.9545    	0.000000    	                	;
 node_247        	156.7161    	0.005417    	                	;
 node_248        	156.6565    	0.000417    	                	;
 node_249        	159.4681    	0.000000    	                	;
 node_250        	155.4623    	0.003750    	                	;
 node_251        	157.3957    	0.000000    	                	;
 node_252        	157.0174    	0.000000    	                	;
 node_253        	156.5733    	0.003750    	                	;
 node_254        	158.5426    	0.017500    	                	;
 node_255        	155.6528    	0.007083    	                	;
 node_256        	149.6049    	0.000000    	                	;
 node_257        	153.8066    	0.000000    	                	;
 node_258        	157.2919    	0.000000    	                	;
 node_259        	157.1860    	0.000000    	                	;
 node_260        	156.2861    	0.000000    	                	;
 node_261        	155.9271    	0.000000    	                	;
 node_262        	157.2848    	0.004583    	                	;
 node_263        	157.6473    	0.000000    	                	;
 node_264        	158.9023    	0.000417    	                	;
 node_265        	158.2073    	0.001667    	                	;
 node_266        	158.8201    	0.000000    	                	;
 node_267        	155.5257    	0.000000    	                	;
 node_268        	157.6364    	0.000833    	                	;
 node_269        	164.8888    	0.000000    	                	;
 node_270        	155.5087    	0.000000    	                	;
 node_271        	155.5176    	0.000000    	                	;
 node_272        	157.1989    	0.002500    	                	;
 node_273        	153.9705    	0.001667    	                	;
 node_274        	156.5612    	0.000000    	                	;
 node_275        	152.8719    	0.000000    	                	;
 node_276        	157.7449    	0.000000    	                	;
 node_277        	155.8024    	0.007917    	                	;
 node_278        	165.2835    	0.000000    	                	;
 node_279        	157.6199    	0.000417    	                	;
 node_280        	154.9926    	0.000000    	                	;
 node_281        	155.2529    	0.002083    	                	;
 node_282        	157.5460    	0.000000    	                	;
 node_283        	157.3494    	0.000000    	                	;
 node_284        	156.4555    	0.000417    	                	;
 node_285        	157.2979    	0.000000    	                	;
 node_286        	152.2856    	0.000000    	                	;
 node_287        	156.3720    	0.000000    	                	;
 node_288        	154.9186    	0.005833    	                	;
 node_289        	163.4055    	0.007917    	                	;
 node_290        	157.9715    	0.000000    	                	;
 node_291        	157.5100    	0.002917    	                	;
 node_292        	157.3277    	0.005000    	                	;
 node_293        	157.0760    	0.002500    	                	;
 node_294        	158.4297    	0.000000    	                	;
 node_295        	146.1566    	0.003333    	                	;
 node_296        	158.9602    	0.000000    	                	;
 node_297        	158.5761    	0.000000    	                	;
 node_298        	157.4806    	0.000417    	                	;
 node_299        	148.3860    	0.000000    	                	;
 node_300        	152.4247    	0.000000    	                	;
 node_301        	150.1248    	0.001250    	                	;
 node_302        	155.2166    	0.001667    	                	;
 node_303        	157.5782    	0.004583    	                	;
 node_304        	158.9548    	0.000417    	                	;
 node_305        	157.8460    	0.000000    	                	;
 node_306        	157.7428    	0.008333    	                	;
 node_307        	154.3898    	0.007083    	                	;
 node_308        	159.0031    	0.003333    	                	;
 node_309        	153.5716    	0.000000    	                	;
 node_310        	156.7072    	0.001250    	                	;
 node_311        	151.8270    	0.000000    	                	;
 node_312        	151.1953    	0.000000    	                	;
 node_313        	157.0832    	0.000417    	                	;
 node_314        	154.0587    	0.000000    	                	;
 node_315        	158.5857    	0.003333    	                	;
 node_316        	154.0458    	0.000000    	                	;
 node_317        	157.8587    	0.004167    	                	;
 node_318        	154.9464    	0.000000    	                	;
 node_319        	157.4738    	0.000000    	                	;
 node_320        	156.8459    	0.000833    	                	;
 node_321        	156.5660    	0.002083    	                	;
 node_322        	158.2642    	0.000000    	                	;
 node_323        	155.8770    	0.002500    	                	;
 node_324        	157.9161    	0.000417    	                	;
 node_325        	156.5644    	0.000000    	                	;
 node_326        	155.6004    	0.000000    	                	;
 node_327        	159.2918    	0.000417    	                	;
 node_328        	154.0779    	0.000417    	                	;
 node_329        	157.2412    	0.003333    	                	;
 node_330        	155.4023    	0.000000    	                	;
 node_331        	158.9800    	0.003333    	                	;
 node_332        	156.5180    	0.000000    	                	;
 node_333        	147.6820    	0.000000    	                	;
 node_334        	157.8100    	0.005417    	                	;
 node_335        	159.0168    	0.002917    	                	;
 node_336        	158.6764    	0.004583    	                	;
 node_337        	164.3255    	0.000000    	                	;
 node_338        	157.2283    	0.000000    	                	;
 node_339        	156.4866    	0.000000    	                	;
 node_340        	156.1204    	0.000000    	                	;
 node_341        	156.8026    	0.005000    	                	;
 node_342        	155.3779    	0.000833    	                	;
 node_343        	152.7962    	0.000000    	                	;
 node_344        	150.0427    	0.000000    	                	;
 node_345        	153.9142    	0.000000    	                	;
 node_346        	154.6388    	0.003750    	                	;
 node_347        	157.7504    	0.003750    	                	;
 node_348        	157.5119    	0.003333    	                	;
 node_349        	154.2641    	0.000000    	                	;
 node_350        	152.8704    	0.000000    	                	;
 node_351        	156.2603    	0.000000    	                	;
 node_352        	156.1460    	0.000000    	                	;
 node_353        	156.1320    	0.000417    	                	;
 node_354        	155.3787    	0.000000    	                	;
 node_355        	156.0162    	0.000417    	                	;
 node_356        	153.5298    	0.000000    	                	;
 node_357        	155.4295    	0.000000    	                	;
 node_358        	157.5111    	0.004583    	                	;
 node_359        	156.8740    	0.000417    	                	;
 node_360        	162.0040    	0.005000    	                	;
 node_361        	157.7543    	0.000000    	                	;
 node_362        	155.8085    	0.004167    	                	;
 node_363        	158.0165    	0.000000    	                	;
 node_364        	152.8241    	0.000000    	                	;
 node_365        	157.6101    	0.002500    	                	;
 node_366        	152.4162    	0.000000    	                	;
 node_367        	155.4836    	0.013333    	                	;
 node_368        	156.4799    	0.006667    	                	;
 node_369        	148.9618    	0.000000    	                	;
 node_370        	156.1211    	0.004583    	                	;
 node_371        	157.9991    	0.001667    	                	;
 node_372        	157.3544    	0.000000    	                	;
 node_373        	156.3613    	0.000833    	                	;
 node_374        	151.0519    	0.000000    	                	;
 node_375        	155.3442    	0.000417    	                	;
 node_376        	158.4549    	0.000000    	                	;
 node_377        	152.3032    	0.000000    	                	;
 node_378        	158.5236    	0.000833    	                	;
 node_379        	157.8696    	0.002500    	                	;
 node_380        	155.2315    	0.000000    	                	;
 node_381        	156.7999    	0.000000    	                	;
 node_382        	157.4332    	0.000833    	                	;
 node_383        	157.1974    	0.000000    	                	;
 node_384        	157.0445    	0.003333    	                	;
 node_385        	153.4436    	0.006667    	                	;
 node_386        	155.4962    	0.003750    	                	;
 node_387        	155.6480    	0.001667    	                	;
 node_388        	166.3763    	0.005000    	                	;
 node_389        	157.7276    	0.004167    	                	;
 node_390        	154.6356    	0.000000    	                	;
 node_391        	158.0491    	0.001667    	                	;
 node_392        	158.8433    	0.000417    	                	;
 node_393        	157.3788    	0.005833    	                	;
 node_394        	157.2449    	0.000000    	                	;
 node_395        	158.8121    	0.000417    	                	;
 node_396        	156.3233    	0.001250    	                	;
 node_397        	153.3950    	0.000417    	                	;
 node_398        	158.0158    	0.003333    	                	;
 node_399        	157.7602    	0.002083    	                	;
 node_400        	156.3005    	0.002500    	                	;
 node_401        	155.9863    	0.002083    	                	;
 node_402        	158.6554    	0.002917    	                	;
 node_403        	158.3461    	0.000000    	                	;
 node_404        	158.7234    	0.000000    	                	;
 node_405        	151.6038    	0.002083    	                	;
 node_406        	155.2668    	0.008333    	                	;
 node_407        	156.4850    	0.009167    	                	;
 node_408        	154.5804    	0.000000    	                	;
 node_409        	155.5841    	0.000000    	                	;
 node_410        	157.7430    	0.000000    	                	;
 node_411        	157.9178    	0.000417    	                	;
 node_412        	157.4462    	0.005000    	                	;
 node_413        	156.6826    	0.000000    	                	;
 node_414        	156.8593    	0.002500    	                	;
 node_415        	156.4014    	0.000000    	                	;
 node_416        	150.1325    	0.014167    	                	;
 node_417        	158.3072    	0.002917    	                	;
 node_418        	162.3938    	0.000000    	                	;
 node_419        	157.7990    	0.003333    	                	;
 node_420        	156.4231    	0.002917    	                	;
 node_421        	155.8655    	0.000000    	                	;
 node_422        	150.2405    	0.000000    	                	;
 node_423        	154.3671    	0.004167    	                	;
 node_424        	152.2869    	0.000000    	                	;
 node_425        	156.9179    	0.000000    	                	;
 node_426        	155.9926    	0.003750    	                	;
 node_427        	157.0154    	0.000417    	                	;
 node_428        	157.5177    	0.000000    	                	;
 node_429        	156.7285    	0.000000    	                	;
 node_430        	157.9069    	0.000000    	                	;
 node_431        	154.7227    	0.000000    	                	;
 node_432        	156.9640    	0.003750    	                	;
 node_433        	157.9179    	0.000417    	                	;
 node_434        	157.3823    	0.000000    	                	;
 node_435        	162.8531    	0.000000    	                	;
 node_436        	158.9307    	0.000417    	                	;
 node_437        	157.9399    	0.002083    	                	;
 node_438        	157.3878    	0.003750    	                	;
 node_439        	154.1121    	0.000000    	                	;
 node_440        	158.4116    	0.000000    	                	;
 node_441        	150.6360    	0.000000    	                	;
 node_442        	155.3767    	0.000000    	                	;
 node_443        	157.4024    	0.002500    	                	;
 node_444        	156.1149    	0.004167    	                	;
 node_445        	158.6707    	0.002917    	                	;
 node_446        	152.4327    	0.000000    	                	;
 node_447        	157.3626    	0.000417    	                	;
 node_448        	156.1625    	0.000000    	                	;
 node_449        	156.4524    	0.004583    	                	;
 node_450        	153.4029    	0.000000    	                	;
 node_451        	156.4157    	0.000000    	                	;
 node_452        	155.5004    	0.000000    	                	;
 node_453        	155.2608    	0.002917    	                	;
 node_454        	155.8182    	0.000000    	                	;
 node_455        	157.3726    	0.001250    	                	;
 node_456        	159.2983    	0.003750    	                	;
 node_457        	156.7069    	0.001250    	                	;
 node_458        	157.0414    	0.000000    	                	;
 node_459        	157.4193    	0.000000    	                	;
 node_460        	157.0182    	0.004583    	                	;
 node_461        	157.3325    	0.002917    	                	;
 node_462        	156.4611    	0.000000    	                	;
 node_463        	154.1988    	0.000000    	                	;
 node_464        	155.0846    	0.000000    	                	;
 node_465        	155.9766    	0.002083    	                	;
 node_466        	157.0632    	0.010417    	                	;
 node_467        	158.9905    	0.006250    	                	;
 node_468        	156.5242    	0.000000    	                	;
 node_469        	157.6505    	0.000833    	                	;
 node_470        	162.1759    	0.000000    	                	;
 node_471        	153.1308    	0.004583    	                	;
 node_472        	158.8098    	0.004167    	                	;
 node_473        	156.4481    	0.007500    	                	;