[TITLE]
Converted from Epanet to Staci, case name: und.spr


[JUNCTIONS]
;ID              	Elev        	Demand      	Pattern         
 node_0          	216.3164    	0.000000    	                	;
 node_1          	199.4055    	0.002500    	                	;
 node_2          	198.1394    	0.000833    	                	;
 node_3          	215.8056    	0.005833    	                	;
 node_4          	215.1008    	0.000000    	                	;
 node_5          	215.2165    	0.005417    	                	;
 node_6          	199.2048    	0.002500    	                	;
 node_7          	215.3891    	0.000000    	                	;
 node_8          	215.3426    	0.004583    	                	;
 node_9          	214.2876    	0.001250    	                	;
 node_10         	214.7454    	0.004583    	                	;
 node_11         	211.2566    	0.000000    	                	;
 node_12         	215.1549    	0.000000    	                	;
 node_13         	216.6748    	0.001667    	                	;
 node_14         	216.6347    	0.000000    	                	;
 node_15         	212.0560    	0.000000    	                	;
 node_16         	200.0609    	0.014846    	                	;
 node_17         	212.8544    	0.001250    	                	;
 node_18         	215.1906    	0.003750    	                	;
 node_19         	214.7737    	0.002083    	                	;
 node_20         	200.1712    	0.008750    	                	;
 node_21         	198.7850    	0.007083    	                	;
 node_22         	216.2699    	0.007083    	                	;
 node_23         	212.9857    	0.006667    	                	;
 node_24         	216.7002    	0.000000    	                	;
 node_25         	216.2673    	0.000000    	                	;
 node_26         	215.7460    	0.004167    	                	;
 node_27         	214.6741    	0.002500    	                	;
 node_28         	216.1884    	0.004167    	                	;
 node_29         	215.4427    	0.004167    	                	;
 node_30         	214.3623    	0.004958    	                	;
 node_31         	216.6454    	0.001250    	                	;
 node_32         	215.7080    	0.000000    	                	;
 node_33         	215.9431    	0.000000    	                	;
 node_34         	200.0350    	0.000000    	                	;
 node_35         	213.6384    	0.001250    	                	;
 node_36         	216.1123    	0.000000    	                	;
 node_37         	214.5069    	0.002500    	                	;
 node_38         	199.4242    	0.003750    	                	;
 node_39         	215.1889    	0.002917    	                	;
 node_40         	215.7840    	0.007917    	                	;
 node_41         	212.5074    	0.001667    	                	;
 node_42         	200.3949    	0.001667    	                	;
 node_43         	216.4895    	0.004167    	                	;
 node_44         	215.5241    	0.002083    	                	;
 node_45         	200.1025    	0.000833    	                	;
 node_46         	214.3846    	0.000625    	                	;
 node_47         	212.5675    	0.000625    	                	;
 node_48         	215.2913    	0.007954    	                	;
 node_49         	215.5547    	0.002083    	                	;
 node_50         	196.2501    	0.000000    	                	;
 node_51         	215.1685    	0.000000    	                	;
 node_52         	215.4049    	0.003333    	                	;
 node_53         	215.8475    	0.000833    	                	;
 node_54         	199.6760    	0.009583    	                	;
 node_55         	216.6145    	0.006250    	                	;
 node_56         	199.1703    	0.000833    	                	;
 node_57         	215.2314    	0.001250    	                	;
 node_58         	212.5241    	0.004167    	                	;
 node_59         	216.8362    	0.000000    	                	;
 node_60         	214.9588    	0.000417    	                	;
 node_61         	215.9738    	0.000833    	                	;
 node_62         	216.2894    	0.000417    	                	;
 node_63         	212.6664    	0.005833    	                	;
 node_64         	199.7850    	0.005417    	                	;
 node_65         	200.2365    	0.001250    	                	;
 node_66         	216.6206    	0.002083    	                	;
 node_67         	212.2128    	0.000000    	                	;
 node_68         	212.8384    	0.003333    	                	;
 node_69         	212.7213    	0.002083    	                	;
 node_70         	198.9948    	0.002917    	                	;
 node_71         	199.6107    	0.002917    	                	;
 node_72         	215.1191    	0.005417    	                	;
 node_73         	213.4912    	0.000833    	                	;
 node_74         	199.9260    	0.030388    	                	;
 node_75         	199.6671    	0.006667    	                	;
 node_76         	215.3774    	0.000000    	                	;
 node_77         	215.9433    	0.000000    	                	;
 node_78         	215.3066    	0.000000    	                	;
 node_79         	199.7080    	0.000000    	                	;
 node_80         	199.5577    	0.002500    	                	;
 node_81         	199.0154    	0.004583    	                	;
 node_82         	199.2392    	0.000417    	                	;
 node_83         	214.7153    	0.001667    	                	;
 node_84         	212.2465    	0.003333    	                	;
 node_85         	211.9080    	0.005417    	                	;
 node_86         	212.0913    	0.001667    	                	;
 node_87         	214.4059    	0.007083    	                	;
 node_88         	215.3055    	0.002917    	                	;
 node_89         	214.5234    	0.001250    	                	;
 node_90         	216.3841    	0.005000    	                	;
 node_91         	214.3891    	0.002042    	                	;
 node_92         	199.4717    	0.002917    	                	;
 node_93         	199.3809    	0.015208    	                	;
 node_94         	216.7035    	0.000000    	                	;
 node_95         	199.4191    	0.004167    	                	;
 node_96         	215.2276    	0.009583    	                	;
 node_97         	199.2970    	0.000417    	                	;
 node_98         	200.1015    	0.001667    	                	;
 node_99         	214.0481    	0.000833    	                	;
 node_100        	215.0280    	0.001667    	                	;
 node_101        	215.4320    	0.005417    	                	;
 node_102        	197.8195    	0.001250    	                	;
 node_103        	199.6522    	0.005000    	                	;
 node_104        	199.7725    	0.000417    	                	;
 node_105        	215.5148    	0.002500    	                	;
 node_106        	212.3135    	0.004583    	                	;
 node_107        	199.3795    	0.005833    	                	;
 node_108        	199.6976    	0.000000    	                	;
 node_109        	200.2143    	0.000000    	                	;
 node_110        	216.4035    	0.000417    	                	;
 node_111        	216.5546    	0.006250    	                	;
 node_112        	214.2758    	0.003750    	                	;
 node_113        	213.8566    	0.000000    	                	;
 node_114        	216.3641    	0.004583    	                	;
 node_115        	215.2223    	0.005000    	                	;
 node_116        	211.9418    	0.002083    	                	;
 node_117        	214.7394    	0.001667    	                	;
 node_118        	215.3322    	0.000000    	                	;
 node_119        	214.0051    	0.002083    	                	;
 node_120        	213.0405    	0.000625    	                	;
 node_121        	215.1911    	0.000000    	                	;
 node_122        	199.3959    	0.004167    	                	;
 node_123        	214.3911    	0.002262    	                	;
 node_124        	214.6405    	0.003750    	                	;
 node_125        	215.4981    	0.001250    	                	;
 node_126        	212.5228    	0.002083    	                	;
 node_127        	215.6822    	0.001250    	                	;
 node_128        	200.3581    	0.000417    	                	;
 node_129        	215.5295    	0.000000    	                	;
 node_130        	215.5552    	0.000833    	                	;
 node_131        	214.7237    	0.000417    	                	;
 node_132        	216.1447    	0.000000    	                	;
 node_133        	212.8047    	0.001667    	                	;
 node_134        	213.3802    	0.000833    	                	;
 node_135        	214.4636    	0.000000    	                	;
 node_136        	216.0732    	0.003333    	                	;
 node_137        	200.0011    	0.000000    	                	;
 node_138        	213.1594    	0.000833    	                	;
 node_139        	216.2896    	0.005417    	                	;
 node_140        	216.4452    	0.000000    	                	;
 node_141        	198.4204    	0.000833    	                	;
 node_142        	215.9624    	0.000625    	                	;
 node_143        	212.3774    	0.000833    	                	;
 node_144        	211.6599    	0.000000    	                	;
 node_145        	213.1233    	0.000000    	                	;
 node_146        	216.0123    	0.001667    	                	;
 node_147        	199.0134    	0.002083    	                	;
 node_148        	199.1179    	0.008333    	                	;
 node_149        	216.6827    	0.003200    	                	;
 node_150        	199.4864    	0.003750    	                	;
 node_151        	213.0692    	0.002500    	                	;
 node_152        	216.1402    	0.000417    	                	;
 node_153        	216.8490    	0.001667    	                	;
 node_154        	215.4703    	0.000417    	                	;
 node_155        	216.4758    	0.002917    	                	;
 node_156        	215.3167    	0.001667    	                	;
 node_157        	215.6346    	0.006667    	                	;
 node_158        	213.2649    	0.005625    	                	;
 node_159        	200.1100    	0.001667    	                	;
 node_160        	216.0943    	0.000067    	                	;
 node_161        	215.9227    	0.000000    	                	;
 node_162        	212.9016    	0.000000    	                	;
 node_163        	215.1170    	0.005504    	                	;
 node_164        	199.2497    	0.004167    	                	;
 node_165        	199.9313    	0.006250    	                	;
 node_166        	212.8194    	0.003750    	                	;
 node_167        	214.8638    	0.000000    	                	;
 node_168        	213.4517    	0.000000    	                	;
 node_169        	211.4159    	0.005575    	                	;
 node_170        	216.7298    	0.003750    	                	;
 node_171        	213.0026    	0.007500    	                	;
 node_172        	215.3745    	0.002746    	                	;
 node_173        	215.7273    	0.001042    	                	;
 node_174        	199.7622    	0.000000    	                	;
 node_175        	215.1712    	0.000000    	                	;
 node_176        	215.2607    	0.003333    	                	;
 node_177        	214.5592    	0.000625    	                	;
 node_178        	215.4631    	0.001250    	                	;
 node_179        	216.2928    	0.002500    	                	;
 node_180        	215.1087    	0.000833    	                	;
 node_181        	199.6975    	0.002083    	                	;
 node_182        	200.2791    	0.004583    	                	;
 node_183        	199.4262    	0.000625    	                	;
 node_184        	199.9624    	0.000417    	                	;
 node_185        	211.6140    	0.003333    	                	;
 node_186        	216.7117    	0.001250    	                	;
 node_187        	215.2509    	0.000417    	                	;
 node_188        	214.5828    	0.000000    	                	;
 node_189        	214.3819    	0.000000    	                	;
 node_190        	215.2164    	0.000000    	                	;
 node_191        	211.4962    	0.002083    	                	;
 node_192        	213.2907    	0.002500    	                	;
 node_193        	199.7932    	0.000000    	                	;
 node_194        	198.2156    	0.000417    	                	;
 node_195        	216.7122    	0.000417    	                	;
 node_196        	212.2284    	0.005000    	                	;
 node_197        	216.3602    	0.005000    	                	;
 node_198        	199.3992    	0.006250    	                	;
 node_199        	216.2287    	0.000000    	                	;
 node_200        	215.8463    	0.004583    	                	;
 node_201        	211.2674    	0.000833    	                	;
 node_202        	212.3302    	0.000000    	                	;
 node_203        	215.4073    	0.004167    	                	;
 node_204        	216.3730    	0.002083    	                	;
 node_205        	215.8886    	0.002917    	                	;
 node_206        	215.6067    	0.003750    	                	;
 node_207        	215.4792    	0.000000    	                	;
 node_208        	216.1806    	0.000000    	                	;
 node_209        	211.9464    	0.002917    	                	;
 node_210        	214.1805    	0.002500    	                	;
 node_211        	215.4082    	0.004583    	                	;
 node_212        	216.4549    	0.000208    	                	;
 node_213        	216.4859    	0.003333    	                	;
 node_214        	199.6326    	0.002083    	                	;
 node_215        	216.3199    	0.000625    	                	;
 node_216        	215.4250    	0.000000    	                	;
 node_217        	200.3086    	0.001250    	                	;
 node_218        	215.6581    	0.002917    	                	;
 node_219        	216.5651    	0.002437    	                	;
 node_220        	216.2620    	0.000417    	                	;
 node_221        	199.0134    	0.000000    	                	;
 node_222        	199.9711    	0.000000    	                	;
 node_223        	215.1050    	0.003333    	                	;
 node_224        	213.9814    	0.000000    	                	;
 node_225        	216.6521    	0.001667    	                	;
 node_226        	216.6138    	0.004583    	                	;
 node_227        	212.5362    	0.002917    	                	;
 node_228        	200.2319    	0.004167    	                	;
 node_229        	216.6720    	0.000000    	                	;
 node_230        	216.6600    	0.000000    	                	;
 node_231        	211.4350    	0.000000    	                	;
 node_232        	209.2350    	0.000000    	                	;
 node_233        	213.5279    	0.000000    	                	;
 node_234        	213.5509    	0.000000    	                	;
 node_235        	215.2138    	0.000000    	                	;
 node_236        	215.1951    	0.000000    	                	;
 node_237        	215.2176    	0.000000    	                	;
 node_238        	215.1990    	0.000000    	                	;
 node_239        	214.8672    	0.000000    	                	;
 node_241        	200.0817    	0.000000    	                	;
 node_242        	200.1371    	0.000000    	                	;
 node_243        	215.2152    	0.000000    	                	;
 node_244        	213.5292    	0.000000    	                	;
 node_245        	213.5522    	0.000000    	                	;
 node_246        	213.5315    	0.000000    	                	;
 node_247        	217.2035    	0.000000    	                	;
 node_248        	209.6753    	0.000000    	                	;
 node_249        	199.9206    	0.000000    	                	;
 node_250        	199.6983    	0.000000    	                	;
 node_251        	199.7083    	0.000000    	                	;
 node_252        	216.6702    	0.000000    	                	;
 node_253        	216.6717    	0.000000    	                	;
 node_254        	216.6597    	0.000000    	                	;
 node_255        	213.5330    	0.000000    	                	;
 node_256        	199.4327    	0.000000    	                	;
 node_257        	203.4894    	0.000000    	                	;
 node_258        	214.8689    	0.000000    	                	;
 node_259        	214.8899    	0.000000    	                	;
 node_261        	212.2555    	0.000000    	                	;
 node_262        	212.2735    	0.000000    	                	;
 node_263        	212.2478    	0.000000    	                	;
 node_264        	212.2658    	0.000000    	                	;
 node_265        	213.3947    	0.000000    	                	;
 node_266        	213.4041    	0.000000    	                	;
 node_267        	212.2495    	0.000000    	                	;
 node_268        	212.2675    	0.000000    	                	;
 node_269        	199.6953    	0.000000    	                	;
 node_270        	199.7053    	0.000000    	                	;
 node_271        	212.2144    	0.000000    	                	;
 node_272        	215.4149    	0.000000    	                	;
 node_273        	213.3261    	0.000000    	                	;
 node_274        	213.3491    	0.000000    	                	;
 node_275        	199.4334    	0.000000    	                	;
 node_276        	199.4501    	0.000000    	                	;
 node_277        	199.9208    	0.000000    	                	;
 node_278        	199.9168    	0.000000    	                	;
 node_279        	215.2167    	0.000000    	                	;
 node_280        	215.1981    	0.000000    	                	;
 node_281        	212.2101    	0.000000    	                	;
 node_282        	212.2301    	0.000000    	                	;
 node_283        	214.8650    	0.000000    	                	;
 node_284        	214.8860    	0.000000    	                	;
 node_285        	199.6950    	0.000000    	                	;
 node_286        	199.7050    	0.000000    	                	;
 node_287        	213.1362    	0.000000    	                	;
 node_288        	213.1412    	0.000000    	                	;
 node_289        	213.1364    	0.000000    	                	;
 node_290        	213.3399    	0.000000    	                	;
 node_291        	199.4575    	0.000000    	                	;
 node_292        	214.8636    	0.000000    	                	;
 node_293        	214.8846    	0.000000    	                	;
 node_294        	213.4025    	0.000000    	                	;
 node_295        	213.4119    	0.000000    	                	;
 node_296        	216.0708    	0.000000    	                	;
 node_297        	216.0774    	0.000000    	                	;
 node_298        	216.6693    	0.000000    	                	;
 node_299        	216.6573    	0.000000    	                	;
 node_300        	213.3182    	0.000000    	                	;
 node_301        	213.3412    	0.000000    	                	;
 node_302        	213.3370    	0.000000    	                	;
 node_303        	213.3600    	0.000000    	                	;
 node_304        	199.4589    	0.000000    	                	;
 node_305        	199.4316    	0.000000    	                	;
 node_306        	212.2519    	0.000000    	                	;
 node_307        	213.3994    	0.000000    	                	;
 node_308        	200.0859    	0.000000    	                	;
 node_309        	200.1412    	0.000000    	                	;
 node_310        	200.0897    	0.000000    	                	;
 node_311        	199.4372    	0.000000    	                	;
 node_312        	199.6952    	0.000000    	                	;
 node_313        	213.5337    	0.000000    	                	;
 node_314        	213.5567    	0.000000    	                	;
 node_315        	213.3242    	0.000000    	                	;

[RESERVOIRS]
;ID              	Head        	Pattern         
 pres_0          	244.5837    	                

[TANKS]
;ID             	Elevation   	InitLevel   	MinLevel    	MaxLevel    	Diameter    	MinVol      	VolCurve
 pool_0          	234.8000    	4.0000      	0.0000      	1000.0000   	5.4288      	0.0000      	                	

[PIPES]
;ID             	Node1           	Node2           	Length      	Diameter    	Roughness   	MinorLoss   	Status
 pipe_0          	node_311        	node_256        	5.4184      	110.0000    	-0.0200     	0.0000      	Open  ;
 pipe_1          	node_291        	node_311        	2.0015      	110.0000    	-0.0200     	0.0000      	Open  ;
 pipe_2          	node_232        	node_257        	785.0366    	110.0000    	-0.0200     	0.0000      	Open  ;
 pipe_3          	pool_0          	node_247        	14.9217     	200.0000    	-0.0200     	0.0000      	Open  ;
 pipe_4          	node_315        	node_290        	13.6982     	90.0000     	-0.0200     	0.0000      	Open  ;
 pipe_5          	node_2          	node_194        	10.5803     	110.0000    	-0.0200     	0.0000      	Open  ;
 pipe_6          	node_194        	node_141        	24.3575     	110.0000    	-0.0200     	0.0000      	Open  ;
 pipe_7          	node_141        	node_21         	21.6127     	110.0000    	-0.0200     	0.0000      	Open  ;
 pipe_8          	node_21         	node_107        	27.9023     	110.0000    	-0.0200     	0.0000      	Open  ;
 pipe_9          	pres_0          	node_50         	97.8063     	110.0000    	-0.0200     	0.0000      	Open  ;
 pipe_10         	node_107        	node_214        	28.3549     	110.0000    	-0.0200     	0.0000      	Open  ;
 pipe_11         	node_214        	node_193        	20.1995     	110.0000    	-0.0200     	0.0000      	Open  ;
 pipe_12         	node_249        	node_74         	2.1370      	110.0000    	-0.0200     	0.0000      	Open  ;
 pipe_13         	node_74         	node_222        	40.6279     	110.0000    	-0.0200     	0.0000      	Open  ;
 pipe_14         	node_54         	node_174        	24.8122     	110.0000    	-0.0200     	0.0000      	Open  ;
 pipe_15         	node_38         	node_311        	4.4176      	110.0000    	-0.0200     	0.0000      	Open  ;
 pipe_16         	node_95         	node_38         	18.9534     	110.0000    	-0.0200     	0.0000      	Open  ;
 pipe_17         	node_56         	node_95         	18.3109     	110.0000    	-0.0200     	0.0000      	Open  ;
 pipe_18         	node_6          	node_56         	18.6073     	110.0000    	-0.0200     	0.0000      	Open  ;
 pipe_19         	node_93         	node_6          	59.9084     	110.0000    	-0.0200     	0.0000      	Open  ;
 pipe_20         	node_183        	node_93         	4.7576      	110.0000    	-0.0200     	0.0000      	Open  ;
 pipe_21         	node_80         	node_183        	20.1811     	110.0000    	-0.0200     	0.0000      	Open  ;
 pipe_22         	node_104        	node_80         	19.8783     	110.0000    	-0.0200     	0.0000      	Open  ;
 pipe_23         	node_184        	node_104        	18.1690     	110.0000    	-0.0200     	0.0000      	Open  ;
 pipe_24         	node_217        	node_159        	22.8609     	110.0000    	-0.0200     	0.0000      	Open  ;
 pipe_25         	node_159        	node_184        	19.0378     	110.0000    	-0.0200     	0.0000      	Open  ;
 pipe_26         	node_42         	node_217        	12.1768     	110.0000    	-0.0200     	0.0000      	Open  ;
 pipe_27         	node_128        	node_42         	12.0966     	110.0000    	-0.0200     	0.0000      	Open  ;
 pipe_28         	node_65         	node_128        	14.1222     	110.0000    	-0.0200     	0.0000      	Open  ;
 pipe_29         	node_45         	node_65         	15.5513     	110.0000    	-0.0200     	0.0000      	Open  ;
 pipe_30         	node_222        	node_16         	94.6531     	110.0000    	-0.0200     	0.0000      	Open  ;
 pipe_31         	node_16         	node_310        	21.6436     	110.0000    	-0.0200     	0.0000      	Open  ;
 pipe_32         	node_228        	node_20         	18.6671     	80.0000     	-0.0200     	0.0000      	Open  ;
 pipe_33         	node_182        	node_228        	12.5605     	80.0000     	-0.0200     	0.0000      	Open  ;
 pipe_34         	node_109        	node_182        	15.7474     	80.0000     	-0.0200     	0.0000      	Open  ;
 pipe_35         	node_98         	node_109        	14.6361     	80.0000     	-0.0200     	0.0000      	Open  ;
 pipe_36         	node_165        	node_98         	16.0865     	80.0000     	-0.0200     	0.0000      	Open  ;
 pipe_37         	node_64         	node_165        	13.1708     	80.0000     	-0.0200     	0.0000      	Open  ;
 pipe_38         	node_103        	node_64         	16.7797     	80.0000     	-0.0200     	0.0000      	Open  ;
 pipe_39         	node_150        	node_103        	17.3774     	80.0000     	-0.0200     	0.0000      	Open  ;
 pipe_40         	node_122        	node_150        	9.4736      	80.0000     	-0.0200     	0.0000      	Open  ;
 pipe_41         	node_198        	node_122        	27.8917     	80.0000     	-0.0200     	0.0000      	Open  ;
 pipe_42         	node_82         	node_198        	17.3555     	80.0000     	-0.0200     	0.0000      	Open  ;
 pipe_43         	node_164        	node_82         	8.9414      	80.0000     	-0.0200     	0.0000      	Open  ;
 pipe_44         	node_92         	node_164        	22.2365     	80.0000     	-0.0200     	0.0000      	Open  ;
 pipe_45         	node_1          	node_92         	14.0543     	80.0000     	-0.0200     	0.0000      	Open  ;
 pipe_46         	node_75         	node_1          	32.4414     	80.0000     	-0.0200     	0.0000      	Open  ;
 pipe_47         	node_71         	node_108        	18.6726     	80.0000     	-0.0200     	0.0000      	Open  ;
 pipe_48         	node_97         	node_71         	21.0161     	80.0000     	-0.0200     	0.0000      	Open  ;
 pipe_49         	node_148        	node_97         	24.1229     	80.0000     	-0.0200     	0.0000      	Open  ;
 pipe_50         	node_70         	node_148        	30.4151     	80.0000     	-0.0200     	0.0000      	Open  ;
 pipe_51         	node_221        	node_147        	0.0485      	80.0000     	-0.0200     	0.0000      	Open  ;
 pipe_52         	node_147        	node_81         	6.7231      	80.0000     	-0.0200     	0.0000      	Open  ;
 pipe_53         	node_81         	node_70         	27.9289     	80.0000     	-0.0200     	0.0000      	Open  ;
 pipe_54         	node_181        	node_79         	43.4829     	80.0000     	-0.0200     	0.0000      	Open  ;
 pipe_55         	node_79         	node_75         	6.3598      	80.0000     	-0.0200     	0.0000      	Open  ;
 pipe_56         	node_102        	node_2          	40.6878     	110.0000    	-0.0200     	0.0000      	Open  ;
 pipe_57         	node_50         	node_102        	171.0483    	110.0000    	-0.0200     	0.0000      	Open  ;
 pipe_58         	node_20         	node_34         	20.6225     	80.0000     	-0.0200     	0.0000      	Open  ;
 pipe_59         	node_34         	node_137        	3.8901      	80.0000     	-0.0200     	0.0000      	Open  ;
 pipe_60         	node_62         	node_90         	24.2338     	110.0000    	-0.0200     	0.0000      	Open  ;
 pipe_61         	node_28         	node_62         	16.0347     	110.0000    	-0.0200     	0.0000      	Open  ;
 pipe_62         	node_36         	node_28         	13.9294     	110.0000    	-0.0200     	0.0000      	Open  ;
 pipe_63         	node_218        	node_53         	20.9910     	110.0000    	-0.0200     	0.0000      	Open  ;
 pipe_64         	node_272        	node_216        	9.1490      	110.0000    	-0.0200     	0.0000      	Open  ;
 pipe_65         	node_172        	node_8          	8.6477      	110.0000    	-0.0200     	0.0000      	Open  ;
 pipe_66         	node_35         	node_255        	6.5764      	110.0000    	-0.0200     	0.0000      	Open  ;
 pipe_67         	node_83         	node_27         	17.8318     	110.0000    	-0.0200     	0.0000      	Open  ;
 pipe_68         	node_255        	node_145        	27.8651     	110.0000    	-0.0200     	0.0000      	Open  ;
 pipe_69         	node_145        	node_171        	8.5269      	110.0000    	-0.0200     	0.0000      	Open  ;
 pipe_70         	node_171        	node_58         	22.5969     	110.0000    	-0.0200     	0.0000      	Open  ;
 pipe_71         	node_58         	node_196        	18.8400     	110.0000    	-0.0200     	0.0000      	Open  ;
 pipe_72         	node_196        	node_85         	19.6842     	110.0000    	-0.0200     	0.0000      	Open  ;
 pipe_73         	node_90         	node_212        	11.5387     	110.0000    	-0.0200     	0.0000      	Open  ;
 pipe_74         	node_289        	node_138        	4.9227      	110.0000    	-0.0200     	0.0000      	Open  ;
 pipe_75         	node_272        	node_118        	15.6327     	110.0000    	-0.0200     	0.0000      	Open  ;
 pipe_76         	node_118        	node_187        	16.0928     	110.0000    	-0.0200     	0.0000      	Open  ;
 pipe_77         	node_8          	node_48         	13.8888     	110.0000    	-0.0200     	0.0000      	Open  ;
 pipe_78         	node_48         	node_272        	30.0159     	110.0000    	-0.0200     	0.0000      	Open  ;
 pipe_79         	node_89         	node_83         	18.5756     	110.0000    	-0.0200     	0.0000      	Open  ;
 pipe_80         	node_27         	node_117        	19.5122     	110.0000    	-0.0200     	0.0000      	Open  ;
 pipe_81         	node_96         	node_172        	11.6446     	110.0000    	-0.0200     	0.0000      	Open  ;
 pipe_82         	node_187        	node_18         	10.7489     	110.0000    	-0.0200     	0.0000      	Open  ;
 pipe_83         	node_18         	node_51         	4.6068      	110.0000    	-0.0200     	0.0000      	Open  ;
 pipe_84         	node_5          	node_175        	6.0376      	110.0000    	-0.0200     	0.0000      	Open  ;