[TITLE]
Converted from Epanet to Staci, case name: varis.spr


[JUNCTIONS]
;ID              	Elev        	Demand      	Pattern         
 node_0          	217.3240    	0.000000    	                	;
 node_1          	216.6990    	0.000000    	                	;
 node_2          	223.3590    	0.000000    	                	;
 node_3          	221.1700    	0.000000    	                	;
 node_4          	225.0100    	0.082917    	                	;
 node_5          	226.0740    	0.000000    	                	;
 node_6          	221.2090    	0.000000    	                	;
 node_7          	221.4660    	0.022917    	                	;
 node_8          	230.1120    	0.006250    	                	;
 node_9          	225.9510    	0.003750    	                	;
 node_10         	225.8580    	0.015000    	                	;
 node_11         	225.3150    	0.007083    	                	;
 node_12         	224.8930    	0.001250    	                	;
 node_13         	224.6400    	0.004583    	                	;
 node_14         	225.2680    	0.000000    	                	;
 node_15         	227.5100    	0.007083    	                	;
 node_16         	226.3600    	0.000000    	                	;
 node_17         	228.1780    	0.014167    	                	;
 node_18         	227.9330    	0.042083    	                	;
 node_19         	218.6090    	0.002500    	                	;
 node_20         	218.4250    	0.006667    	                	;
 node_21         	232.0830    	0.006250    	                	;
 node_22         	231.2300    	0.007083    	                	;
 node_23         	230.7930    	0.005833    	                	;
 node_24         	223.8100    	0.033333    	                	;
 node_25         	226.2120    	0.006250    	                	;
 node_26         	217.8730    	0.001667    	                	;
 node_27         	221.5670    	0.001667    	                	;
 node_28         	220.9640    	0.007917    	                	;
 node_29         	220.8990    	0.132083    	                	;
 node_30         	220.3860    	0.024167    	                	;
 node_31         	219.6150    	0.002917    	                	;
 node_32         	217.4840    	0.003750    	                	;
 node_33         	216.7770    	0.002083    	                	;
 node_34         	216.6910    	0.002917    	                	;
 node_35         	229.1930    	0.003333    	                	;
 node_36         	219.3380    	0.004583    	                	;
 node_37         	217.9200    	0.002917    	                	;
 node_38         	218.3300    	0.001250    	                	;
 node_39         	228.2590    	0.000000    	                	;
 node_40         	234.7830    	0.000000    	                	;
 node_41         	217.5870    	0.017500    	                	;
 node_42         	222.4390    	0.000000    	                	;
 node_43         	218.1800    	0.000000    	                	;
 node_44         	229.4080    	0.000000    	                	;
 node_45         	228.7370    	0.000000    	                	;
 node_46         	223.5240    	0.004167    	                	;
 node_47         	224.5490    	0.001667    	                	;
 node_48         	217.0140    	0.000000    	                	;
 node_49         	223.9460    	0.031250    	                	;
 node_50         	218.6470    	0.042500    	                	;
 node_51         	219.9540    	0.052500    	                	;
 node_52         	223.9820    	0.004583    	                	;
 node_53         	222.2930    	0.002500    	                	;
 node_54         	222.0410    	0.002917    	                	;
 node_55         	218.8890    	0.002917    	                	;
 node_56         	221.9610    	0.003333    	                	;
 node_57         	216.6460    	0.001667    	                	;
 node_58         	219.4460    	0.005417    	                	;
 node_59         	223.2600    	0.000833    	                	;
 node_60         	224.3240    	0.003750    	                	;
 node_61         	216.5940    	0.001250    	                	;
 node_62         	216.5100    	0.001250    	                	;
 node_63         	216.4670    	0.002083    	                	;
 node_64         	232.3030    	0.000000    	                	;
 node_65         	259.8620    	0.000417    	                	;
 node_66         	222.9680    	0.000000    	                	;
 node_67         	225.5030    	0.002917    	                	;
 node_68         	226.2500    	0.014167    	                	;
 node_69         	236.1200    	0.000000    	                	;
 node_70         	225.1280    	0.039583    	                	;
 node_71         	219.6220    	0.006250    	                	;
 node_72         	230.1220    	0.002917    	                	;
 node_73         	231.0020    	0.004583    	                	;
 node_74         	226.9260    	0.030833    	                	;
 node_75         	226.2990    	0.000417    	                	;
 node_76         	221.3800    	0.003750    	                	;
 node_77         	217.1390    	0.006667    	                	;
 node_78         	240.6770    	0.056250    	                	;
 node_79         	226.1930    	0.000833    	                	;
 node_80         	223.4100    	0.003333    	                	;
 node_81         	218.0600    	0.004167    	                	;
 node_82         	227.7190    	0.003750    	                	;
 node_83         	227.9670    	0.000000    	                	;
 node_84         	231.9710    	0.000833    	                	;
 node_85         	224.9380    	0.013750    	                	;
 node_86         	221.6040    	0.010000    	                	;
 node_87         	225.4030    	0.010417    	                	;
 node_88         	219.7320    	0.006667    	                	;
 node_89         	217.4910    	0.030833    	                	;
 node_90         	235.4090    	0.002917    	                	;
 node_91         	235.4200    	0.016250    	                	;
 node_92         	228.2510    	0.000000    	                	;
 node_93         	229.4880    	0.003333    	                	;
 node_94         	223.4690    	0.001667    	                	;
 node_95         	219.0700    	0.006250    	                	;
 node_96         	218.2170    	0.005833    	                	;
 node_97         	229.4950    	0.002500    	                	;
 node_98         	221.6080    	0.010417    	                	;
 node_99         	232.9670    	0.002083    	                	;
 node_100        	234.1590    	0.006250    	                	;
 node_101        	234.1200    	0.000417    	                	;
 node_102        	228.3940    	0.000000    	                	;
 node_103        	222.7020    	0.002917    	                	;
 node_104        	218.3360    	0.007083    	                	;
 node_105        	224.6070    	0.010417    	                	;
 node_106        	226.3420    	0.000833    	                	;
 node_107        	216.8060    	0.004583    	                	;
 node_108        	221.0790    	0.000417    	                	;
 node_109        	219.2380    	0.007500    	                	;
 node_110        	224.0170    	0.004167    	                	;
 node_111        	221.8170    	0.004167    	                	;
 node_112        	236.2100    	0.004167    	                	;
 node_113        	224.3080    	0.003333    	                	;
 node_114        	225.0370    	0.008750    	                	;
 node_115        	221.9050    	0.000000    	                	;
 node_116        	222.7110    	0.005833    	                	;
 node_117        	217.4320    	0.000000    	                	;
 node_118        	221.5580    	0.702083    	                	;
 node_119        	225.6000    	0.000000    	                	;
 node_120        	225.9640    	0.006667    	                	;
 node_121        	225.8580    	0.004167    	                	;
 node_122        	223.9960    	0.005417    	                	;
 node_123        	229.7310    	0.000417    	                	;
 node_124        	226.4960    	0.005000    	                	;
 node_125        	236.3120    	0.000417    	                	;
 node_126        	226.0390    	0.000000    	                	;
 node_127        	228.6200    	0.020000    	                	;
 node_128        	233.0530    	0.000000    	                	;
 node_129        	222.3030    	0.018750    	                	;
 node_130        	227.2640    	0.062083    	                	;
 node_131        	221.6380    	0.000000    	                	;
 node_132        	226.0410    	0.007500    	                	;
 node_133        	228.4320    	0.004167    	                	;
 node_134        	220.6450    	0.005417    	                	;
 node_135        	221.5230    	0.005000    	                	;
 node_136        	221.4160    	0.007083    	                	;
 node_137        	221.2520    	0.150833    	                	;
 node_138        	221.9290    	0.025417    	                	;
 node_139        	218.6740    	0.008333    	                	;
 node_140        	216.7450    	0.003750    	                	;
 node_141        	215.6260    	0.000000    	                	;
 node_142        	215.1340    	0.003750    	                	;
 node_143        	221.5780    	0.000000    	                	;
 node_144        	229.4550    	0.000417    	                	;
 node_145        	221.6860    	0.467500    	                	;
 node_146        	222.5960    	0.000000    	                	;
 node_147        	221.9590    	0.000000    	                	;
 node_148        	217.7570    	0.008750    	                	;
 node_149        	217.6200    	0.002083    	                	;
 node_150        	220.9810    	0.005000    	                	;
 node_151        	218.7230    	0.005000    	                	;
 node_152        	219.0230    	0.001250    	                	;
 node_153        	225.2450    	0.000000    	                	;
 node_154        	218.4040    	0.002917    	                	;
 node_155        	221.9350    	0.000833    	                	;
 node_156        	223.2850    	0.011250    	                	;
 node_157        	218.0240    	0.002500    	                	;
 node_158        	228.4280    	0.010417    	                	;
 node_159        	218.7160    	0.004583    	                	;
 node_160        	219.5770    	0.007500    	                	;
 node_161        	221.7520    	0.041667    	                	;
 node_162        	219.3730    	0.007083    	                	;
 node_163        	221.4690    	0.004583    	                	;
 node_164        	221.6520    	0.002083    	                	;
 node_165        	221.1030    	0.026667    	                	;
 node_166        	218.8130    	0.007083    	                	;
 node_167        	216.5250    	0.002500    	                	;
 node_168        	225.9080    	0.000000    	                	;
 node_169        	223.8030    	0.000000    	                	;
 node_170        	223.3740    	0.000000    	                	;
 node_171        	221.3270    	0.000000    	                	;
 node_172        	236.3660    	0.004167    	                	;
 node_173        	239.3780    	0.000000    	                	;
 node_174        	230.6640    	0.000000    	                	;
 node_175        	231.1880    	0.004583    	                	;
 node_176        	222.3580    	0.011250    	                	;
 node_177        	220.8030    	0.017083    	                	;
 node_178        	224.5320    	0.004583    	                	;
 node_179        	224.1550    	0.003750    	                	;
 node_180        	222.8340    	0.002917    	                	;
 node_181        	222.6710    	0.006667    	                	;
 node_182        	217.0980    	0.012917    	                	;
 node_183        	217.7320    	0.005000    	                	;
 node_184        	217.3420    	0.004167    	                	;
 node_185        	226.8220    	0.009583    	                	;
 node_186        	225.4330    	0.000000    	                	;
 node_187        	219.6360    	0.005000    	                	;
 node_188        	230.5720    	0.006667    	                	;
 node_189        	227.4680    	0.069583    	                	;
 node_190        	228.1040    	0.004583    	                	;
 node_191        	222.3060    	0.005000    	                	;
 node_192        	222.2620    	0.005417    	                	;
 node_193        	219.6760    	0.002083    	                	;
 node_194        	218.0310    	0.007083    	                	;
 node_195        	217.6250    	0.002917    	                	;
 node_196        	221.2590    	0.005000    	                	;
 node_197        	217.5250    	0.026667    	                	;
 node_198        	219.1640    	0.003750    	                	;
 node_199        	230.6490    	0.000417    	                	;
 node_200        	216.3060    	0.005000    	                	;
 node_201        	217.5660    	0.007917    	                	;
 node_202        	220.0550    	0.005000    	                	;
 node_203        	219.2640    	0.005000    	                	;
 node_204        	221.7490    	0.000417    	                	;
 node_205        	220.6440    	0.004583    	                	;
 node_206        	240.4650    	0.000417    	                	;
 node_207        	231.4130    	0.009167    	                	;
 node_208        	233.0080    	0.001667    	                	;
 node_209        	233.1040    	0.003750    	                	;
 node_210        	233.8400    	0.008333    	                	;
 node_211        	219.9410    	0.009583    	                	;
 node_212        	216.0710    	0.002917    	                	;
 node_213        	212.1510    	0.000417    	                	;
 node_214        	228.7600    	0.004583    	                	;
 node_215        	229.5720    	0.000000    	                	;
 node_216        	225.5330    	0.014167    	                	;
 node_217        	218.6740    	0.006250    	                	;
 node_218        	219.0070    	0.001250    	                	;
 node_219        	219.6460    	0.005833    	                	;
 node_220        	231.6640    	0.001250    	                	;
 node_221        	235.7360    	0.038333    	                	;
 node_222        	224.9440    	0.000000    	                	;
 node_223        	228.5920    	0.003333    	                	;
 node_224        	218.3810    	0.005833    	                	;
 node_225        	233.1920    	0.010417    	                	;
 node_226        	221.1200    	0.000417    	                	;
 node_227        	221.0880    	0.003333    	                	;
 node_228        	220.8260    	0.002500    	                	;
 node_229        	221.0650    	0.009583    	                	;
 node_230        	220.8150    	0.012917    	                	;
 node_231        	216.5350    	0.000000    	                	;
 node_232        	231.5450    	0.007083    	                	;
 node_233        	230.9100    	0.004167    	                	;
 node_234        	212.9400    	0.022500    	                	;
 node_235        	229.4520    	0.000000    	                	;
 node_236        	257.8220    	0.000000    	                	;
 node_237        	224.1940    	0.037083    	                	;
 node_238        	215.3550    	0.003750    	                	;
 node_239        	219.2670    	0.000000    	                	;
 node_240        	211.9210    	0.018333    	                	;
 node_241        	215.2770    	0.000000    	                	;
 node_242        	234.0970    	0.000000    	                	;
 node_243        	221.6600    	0.010833    	                	;
 node_244        	231.2190    	0.001250    	                	;
 node_245        	227.9520    	0.005000    	                	;
 node_246        	223.2390    	0.000000    	                	;
 node_247        	228.6260    	0.005417    	                	;
 node_248        	218.7110    	0.003333    	                	;
 node_249        	230.9230    	0.004167    	                	;
 node_250        	231.0990    	0.015833    	                	;
 node_251        	220.4790    	0.023750    	                	;
 node_252        	218.2340    	0.000000    	                	;
 node_253        	231.0950    	0.004167    	                	;
 node_254        	226.1510    	0.000000    	                	;
 node_255        	229.2340    	0.030000    	                	;
 node_256        	224.3950    	0.000000    	                	;
 node_257        	226.6240    	0.000000    	                	;
 node_258        	222.7160    	0.190000    	                	;
 node_259        	220.4480    	0.006250    	                	;
 node_260        	220.1160    	0.005417    	                	;
 node_261        	224.5260    	0.005417    	                	;
 node_262        	219.8620    	0.017083    	                	;
 node_263        	220.6330    	0.023750    	                	;
 node_264        	218.2340    	0.005000    	                	;
 node_265        	229.7290    	0.697083    	                	;
 node_266        	224.5230    	0.000000    	                	;
 node_267        	228.3700    	0.000000    	                	;
 node_268        	235.6840    	0.030000    	                	;
 node_269        	218.0370    	0.003333    	                	;
 node_270        	221.4560    	0.000000    	                	;
 node_271        	230.0910    	0.000000    	                	;
 node_272        	218.9510    	0.000000    	                	;
 node_273        	219.7500    	0.012500    	                	;
 node_274        	219.1890    	0.010417    	                	;
 node_275        	233.8910    	0.000000    	                	;
 node_276        	232.0540    	0.000000    	                	;
 node_277        	225.7610    	0.000000    	                	;
 node_278        	237.5890    	0.067917    	                	;
 node_279        	216.2300    	0.005833    	                	;
 node_280        	217.5290    	0.023333    	                	;
 node_281        	218.0500    	0.001667    	                	;
 node_282        	222.0920    	0.007917    	                	;
 node_283        	221.9650    	0.005000    	                	;
 node_284        	219.0300    	0.005000    	                	;
 node_285        	222.7560    	0.012500    	                	;
 node_286        	222.6220    	0.007500    	                	;
 node_287        	219.7920    	0.005417    	                	;
 node_288        	224.5390    	0.000000    	                	;
 node_289        	220.6700    	0.002917    	                	;
 node_290        	221.6550    	0.008333    	                	;
 node_291        	220.6540    	0.002917    	                	;
 node_292        	216.6600    	0.009167    	                	;
 node_293        	216.6100    	0.005000    	                	;
 node_294        	222.5730    	0.000000    	                	;
 node_295        	226.7350    	0.000000    	                	;
 node_296        	218.7730    	0.000000    	                	;
 node_297        	224.3190    	0.002917    	                	;
 node_298        	213.9680    	0.001250    	                	;
 node_299        	223.8020    	0.000000    	                	;
 node_300        	222.1410    	0.000000    	                	;
 node_301        	224.5950    	0.000000    	                	;
 node_302        	220.3190    	0.005833    	                	;
 node_303        	236.2550    	0.005417    	                	;
 node_304        	220.1380    	0.009167    	                	;
 node_305        	230.2990    	0.004583    	                	;
 node_306        	228.4910    	0.003333    	                	;
 node_307        	231.4430    	0.022083    	                	;
 node_308        	220.1900    	0.008750    	                	;
 node_309        	221.2140    	0.002083    	                	;
 node_310        	221.2900    	0.004583    	                	;
 node_311        	216.8580    	0.006667    	                	;
 node_312        	228.1590    	0.000000    	                	;
 node_313        	222.8520    	0.005000    	                	;
 node_314        	223.9910    	0.008333    	                	;
 node_315        	223.9680    	0.004583    	                	;
 node_316        	224.4440    	0.001667    	                	;
 node_317        	225.8590    	0.007500    	                	;
 node_318        	218.2310    	0.004583    	                	;
 node_319        	218.6240    	0.003750    	                	;
 node_320        	229.2260    	0.002083    	                	;
 node_321        	244.7740    	0.000000    	                	;
 node_322        	215.6330    	0.000417    	                	;
 node_323        	215.7040    	0.005417    	                	;
 node_324        	229.2200    	0.003750    	                	;
 node_325        	217.4800    	0.005000    	                	;
 node_326        	223.6450    	0.003333    	                	;
 node_327        	229.2390    	0.008750    	                	;
 node_328        	226.2270    	0.013750    	                	;
 node_329        	220.8190    	0.033750    	                	;
 node_330        	221.4560    	0.000000    	                	;
 node_331        	221.2750    	0.000000    	                	;
 node_332        	237.9650    	0.004583    	                	;
 node_333        	232.9780    	0.005833    	                	;
 node_334        	234.0780    	0.004167    	                	;
 node_335        	234.0380    	0.008333    	                	;
 node_336        	226.3860    	0.004167    	                	;
 node_337        	218.4320    	0.001250    	                	;
 node_338        	234.7810    	0.000833    	                	;
 node_339        	228.2200    	0.008333    	                	;
 node_340        	223.1620    	0.010833    	                	;
 node_341        	222.1820    	0.000000    	                	;
 node_342        	224.9190    	0.001250    	                	;
 node_343        	220.2570    	0.007500    	                	;
 node_344        	221.2740    	0.006250    	                	;
 node_345        	225.1910    	0.007083    	                	;
 node_346        	235.4350    	0.002917    	                	;
 node_347        	235.8990    	0.007500    	                	;
 node_348        	236.3350    	0.007500    	                	;
 node_349        	224.6960    	0.005417    	                	;
 node_350        	218.6760    	0.000417    	                	;
 node_351        	223.7380    	0.007917    	                	;
 node_352        	228.5310    	0.000000    	                	;
 node_353        	236.4260    	0.001250    	                	;
 node_354        	222.9330    	0.021250    	                	;
 node_355        	220.9200    	0.081667    	                	;
 node_356        	224.1860    	0.000000    	                	;
 node_357        	221.4030    	0.005000    	                	;
 node_358        	239.6220    	0.000000    	                	;
 node_359        	227.0020    	0.003333    	                	;
 node_360        	226.5990    	0.002500    	                	;
 node_361        	226.6000    	0.012083    	                	;
 node_362        	223.8590    	0.013750    	                	;
 node_363        	227.9610    	0.000833    	                	;
 node_364        	227.7790    	0.003333    	                	;
 node_365        	226.7830    	0.009167    	                	;
 node_366        	222.3090    	0.000000    	                	;
 node_367        	236.4400    	0.000000    	                	;
 node_368        	219.6240    	0.045833    	                	;
 node_369        	223.1120    	0.000000    	                	;
 node_370        	218.7420    	0.003333    	                	;
 node_371        	218.5440    	0.000000    	                	;
 node_372        	221.8910    	0.000000    	                	;
 node_373        	232.6390    	0.006250    	                	;
 node_374        	231.5970    	0.003750    	                	;
 node_375        	228.4190    	0.006250    	                	;
 node_376        	225.5250    	0.002500    	                	;
 node_377        	225.4000    	0.007917    	                	;
 node_378        	220.9100    	0.002500    	                	;
 node_379        	221.5560    	0.007500    	                	;
 node_380        	222.2730    	0.004583    	                	;
 node_381        	219.6840    	0.029583    	                	;
 node_382        	220.6840    	0.018333    	                	;
 node_383        	217.0190    	0.000000    	                	;
 node_384        	226.9230    	0.000000    	                	;
 node_385        	229.4220    	0.002500    	                	;
 node_386        	229.9960    	0.001250    	                	;
 node_387        	227.5140    	0.000000    	                	;
 node_388        	261.0290    	0.000000    	                	;
 node_389        	221.1790    	0.039583    	                	;
 node_390        	230.3880    	0.000000    	                	;
 node_391        	228.8230    	0.000000    	                	;
 node_392        	217.1620    	0.014583    	                	;
 node_393        	219.2040    	0.006250    	                	;
 node_394        	217.8770    	0.000000    	                	;
 node_395        	219.8040    	0.001667    	                	;
 node_396        	236.8870    	0.000000    	                	;
 node_397        	235.2580    	0.010417    	                	;
 node_398        	217.9690    	0.019583    	                	;
 node_399        	217.2670    	0.007917    	                	;
 node_400        	220.0260    	0.078333    	                	;
 node_401        	222.0700    	0.001667    	                	;
 node_402        	217.5410    	0.007917    	                	;
 node_403        	228.3970    	0.002083    	                	;
 node_404        	225.4240    	0.000833    	                	;
 node_405        	225.0600    	0.000000    	                	;
 node_406        	219.8090    	0.005417    	                	;
 node_407        	219.8280    	0.008750    	                	;
 node_408        	219.7060    	0.002917    	                	;
 node_409        	223.3810    	0.010417    	                	;
 node_410        	221.4710    	0.000000    	                	;
 node_411        	230.1240    	0.000000    	                	;
 node_412        	229.3480    	0.000000    	                	;
 node_413        	221.3240    	0.000000    	                	;
 node_414        	224.6230    	0.000000    	                	;
 node_415        	224.2210    	0.000000    	                	;
 node_416        	222.5540    	0.000000    	                	;
 node_417        	224.9360    	0.007083    	                	;
 node_418        	225.4840    	0.000417    	                	;
 node_419        	224.4040    	0.014167    	                	;
 node_420        	224.8910    	0.028750    	                	;
 node_421        	226.1990    	0.005000    	                	;
 node_422        	225.9510    	0.006250    	                	;
 node_423        	236.1690    	0.006250    	                	;
 node_424        	219.8070    	0.020000    	                	;
 node_425        	234.0990    	0.008333    	                	;
 node_426        	231.1930    	0.004167    	                	;
 node_427        	230.9720    	0.007083    	                	;
 node_428        	231.4850    	0.004583    	                	;
 node_429        	229.9430    	0.003750    	                	;
 node_430        	220.4670    	0.035417    	                	;
 node_431        	220.9360    	0.002083    	                	;
 node_432        	222.1690    	0.003333    	                	;
 node_433        	216.7810    	0.013333    	                	;
 node_434        	218.3140    	0.006667    	                	;
 node_435        	225.0920    	0.003750    	                	;
 node_436        	225.0350    	0.006667    	                	;
 node_437        	224.0430    	0.033750    	                	;
 node_438        	217.6950    	0.000000    	                	;
 node_439        	217.7160    	0.000833    	                	;
 node_440        	217.6390    	0.006250    	                	;
 node_441        	220.4070    	0.005000    	                	;
 node_442        	230.5340    	0.000000    	                	;
 node_443        	229.2690    	0.028750    	                	;
 node_444        	228.6000    	0.000833    	                	;
 node_445        	224.9530    	0.002917    	                	;
 node_446        	224.0280    	0.004167    	                	;
 node_447        	215.7220    	0.009167    	                	;
 node_448        	217.9310    	0.030417    	                	;
 node_449        	225.4470    	0.004167    	                	;
 node_450        	223.2300    	0.002500    	                	;
 node_451        	230.7210    	0.005417    	                	;
 node_452        	230.1150    	0.001667    	                	;
 node_453        	230.0450    	0.000833    	                	;
 node_454        	216.0890    	0.005833    	                	;
 node_455        	221.5610    	0.005833    	                	;
 node_456        	220.4650    	0.005833    	                	;
 node_457        	220.4870    	0.005000    	                	;
 node_458        	220.0810    	0.005417    	                	;
 node_459        	220.4280    	0.005000    	                	;
 node_460        	222.2940    	0.000000    	                	;
 node_461        	221.1870    	0.000000    	                	;
 node_462        	239.2300    	0.003333    	                	;
 node_463        	230.5210    	0.035417    	                	;
 node_464        	229.6610    	0.000833    	                	;
 node_465        	233.4380    	0.010833    	                	;
 node_466        	233.9480    	0.008333    	                	;
 node_467        	234.1890    	0.013750    	                	;
 node_468        	234.4300    	0.003333    	                	;
 node_469        	216.7160    	0.004167    	                	;
 node_470        	221.1670    	0.000000    	                	;
 node_471        	224.8710    	0.000000    	                	;
 node_472        	232.3650    	0.005833    	                	;
 node_473        	225.1320    	0.006667    	                	;