[TITLE]
Converted from Epanet to Staci, case name: vashegy.spr


[JUNCTIONS]
;ID              	Elev        	Demand      	Pattern         
 node_0          	277.1590    	0.000000    	                	;
 node_1          	251.4180    	0.000000    	                	;
 node_2          	258.4390    	0.000000    	                	;
 node_3          	278.3280    	0.000000    	                	;
 node_4          	277.4430    	0.013333    	                	;
 node_5          	275.0180    	0.011250    	                	;
 node_6          	243.8570    	0.021250    	                	;
 node_7          	258.9260    	0.000000    	                	;
 node_8          	257.6120    	0.000000    	                	;
 node_9          	258.3320    	0.001667    	                	;
 node_10         	287.2060    	0.000000    	                	;
 node_11         	270.1240    	0.000000    	                	;
 node_12         	281.5110    	0.000000    	                	;
 node_13         	268.7810    	0.000000    	                	;
 node_14         	259.5080    	0.000000    	                	;
 node_15         	263.6510    	0.000000    	                	;
 node_16         	262.6360    	0.000000    	                	;
 node_17         	264.2930    	0.000000    	                	;
 node_18         	251.3140    	0.000000    	                	;
 node_19         	245.5510    	0.187500    	                	;
 node_20         	242.8990    	0.187917    	                	;
 node_21         	277.0810    	0.000000    	                	;
 node_22         	250.2930    	0.000000    	                	;
 node_23         	272.7920    	0.000000    	                	;
 node_24         	270.5650    	0.000000    	                	;
 node_25         	267.7710    	0.000000    	                	;
 node_26         	255.3070    	0.000000    	                	;
 node_27         	243.3270    	0.000000    	                	;
 node_28         	275.4300    	0.000000    	                	;
 node_29         	269.4890    	0.014167    	                	;
 node_30         	269.3710    	0.003333    	                	;
 node_31         	281.1790    	0.007500    	                	;
 node_32         	275.8550    	0.000000    	                	;
 node_33         	276.0580    	0.000000    	                	;
 node_34         	258.2330    	0.007917    	                	;
 node_35         	275.0530    	0.000417    	                	;
 node_36         	271.0360    	0.000000    	                	;
 node_37         	265.4260    	0.002083    	                	;
 node_38         	262.9820    	0.003750    	                	;
 node_39         	253.1410    	0.003750    	                	;
 node_40         	248.9460    	0.017083    	                	;
 node_41         	263.2980    	0.011667    	                	;
 node_42         	285.7020    	0.008750    	                	;
 node_43         	242.6650    	0.023750    	                	;
 node_44         	247.7610    	0.000000    	                	;
 node_45         	280.3810    	0.001667    	                	;
 node_46         	299.3340    	0.007500    	                	;
 node_47         	270.2300    	0.014583    	                	;
 node_48         	281.3080    	0.000000    	                	;
 node_49         	279.9600    	0.004167    	                	;
 node_50         	277.5980    	0.000000    	                	;
 node_51         	272.5090    	0.001667    	                	;
 node_52         	301.8120    	0.000000    	                	;
 node_53         	290.6290    	0.002083    	                	;
 node_54         	258.2850    	0.013750    	                	;
 node_55         	272.4500    	0.000000    	                	;
 node_56         	272.4420    	0.000000    	                	;
 node_57         	272.4620    	0.000000    	                	;
 node_58         	272.6560    	0.006250    	                	;
 node_59         	297.6600    	0.000417    	                	;
 node_60         	295.6340    	0.001250    	                	;
 node_61         	292.6910    	0.000000    	                	;
 node_62         	270.5170    	0.001667    	                	;
 node_63         	267.9100    	0.003750    	                	;
 node_64         	260.3750    	0.017500    	                	;
 node_65         	269.4120    	0.008333    	                	;
 node_66         	269.5190    	0.011250    	                	;
 node_67         	268.9750    	0.019583    	                	;
 node_68         	265.6300    	0.000833    	                	;
 node_69         	259.7450    	0.000000    	                	;
 node_70         	274.5430    	0.004167    	                	;
 node_71         	269.9240    	0.005417    	                	;
 node_72         	276.8330    	0.000833    	                	;
 node_73         	272.6470    	0.012083    	                	;
 node_74         	257.7970    	0.004167    	                	;
 node_75         	276.3220    	0.000000    	                	;
 node_76         	269.9440    	0.004583    	                	;
 node_77         	282.0870    	0.000000    	                	;
 node_78         	301.6020    	0.003750    	                	;
 node_79         	267.6700    	0.010000    	                	;
 node_80         	289.3730    	0.002917    	                	;
 node_81         	292.9310    	0.000000    	                	;
 node_82         	264.9680    	0.004583    	                	;
 node_83         	273.0530    	0.000000    	                	;
 node_84         	266.3920    	0.002083    	                	;
 node_85         	268.1370    	0.001250    	                	;
 node_86         	266.6130    	0.001250    	                	;
 node_87         	265.6180    	0.000000    	                	;
 node_88         	265.8430    	0.001667    	                	;
 node_89         	262.3010    	0.001250    	                	;
 node_90         	265.8770    	0.000000    	                	;
 node_91         	265.5840    	0.000000    	                	;
 node_92         	265.6370    	0.000000    	                	;
 node_93         	266.1940    	0.000000    	                	;
 node_94         	266.4320    	0.005833    	                	;
 node_95         	261.8400    	0.000000    	                	;
 node_96         	262.3740    	0.007917    	                	;
 node_97         	262.8090    	0.005417    	                	;
 node_98         	263.6010    	0.004167    	                	;
 node_99         	264.0310    	0.000000    	                	;
 node_100        	272.3300    	0.005833    	                	;
 node_101        	272.4440    	0.004167    	                	;
 node_102        	272.1340    	0.003750    	                	;
 node_103        	264.8600    	0.002917    	                	;
 node_104        	264.4270    	0.004167    	                	;
 node_105        	269.4060    	0.003750    	                	;
 node_106        	270.1720    	0.011250    	                	;
 node_107        	271.2220    	0.002083    	                	;
 node_108        	274.1740    	0.001667    	                	;
 node_109        	273.1180    	0.007917    	                	;
 node_110        	272.5140    	0.003333    	                	;
 node_111        	275.5090    	0.001250    	                	;
 node_112        	275.7510    	0.004583    	                	;
 node_113        	276.1200    	0.012500    	                	;
 node_114        	272.3910    	0.004583    	                	;
 node_115        	270.2630    	0.008333    	                	;
 node_116        	257.0220    	0.002500    	                	;
 node_117        	258.1470    	0.003333    	                	;
 node_118        	254.5380    	0.002500    	                	;
 node_119        	255.7870    	0.007083    	                	;
 node_120        	258.6230    	0.004167    	                	;
 node_121        	258.1820    	0.002500    	                	;
 node_122        	257.6430    	0.005417    	                	;
 node_123        	256.9860    	0.011667    	                	;
 node_124        	257.1480    	0.000833    	                	;
 node_125        	258.0500    	0.005000    	                	;
 node_126        	260.6690    	0.000833    	                	;
 node_127        	260.2430    	0.003333    	                	;
 node_128        	258.2690    	0.005000    	                	;
 node_129        	257.0020    	0.002083    	                	;
 node_130        	255.7690    	0.002083    	                	;
 node_131        	278.5730    	0.000417    	                	;
 node_132        	274.4400    	0.002500    	                	;
 node_133        	274.2690    	0.000000    	                	;
 node_134        	261.8880    	0.002500    	                	;
 node_135        	259.6920    	0.004583    	                	;
 node_136        	263.5410    	0.005833    	                	;
 node_137        	250.9550    	0.003750    	                	;
 node_138        	250.5010    	0.007500    	                	;
 node_139        	253.1240    	0.001667    	                	;
 node_140        	251.7770    	0.001250    	                	;
 node_141        	251.4220    	0.008333    	                	;
 node_142        	250.4360    	0.005000    	                	;
 node_143        	248.6190    	0.000000    	                	;
 node_144        	257.4540    	0.000833    	                	;
 node_145        	259.7440    	0.007917    	                	;
 node_146        	256.4880    	0.001250    	                	;
 node_147        	252.6270    	0.000833    	                	;
 node_148        	252.9730    	0.013750    	                	;
 node_149        	273.7330    	0.004167    	                	;
 node_150        	252.9760    	0.002500    	                	;
 node_151        	253.0630    	0.002917    	                	;
 node_152        	253.2630    	0.012917    	                	;
 node_153        	265.7980    	0.002500    	                	;
 node_154        	254.0210    	0.020833    	                	;
 node_155        	255.4930    	0.020000    	                	;
 node_156        	272.6120    	0.000000    	                	;
 node_157        	268.0150    	0.000000    	                	;
 node_158        	266.2000    	0.000000    	                	;
 node_159        	262.0040    	0.006667    	                	;
 node_160        	244.9230    	0.006667    	                	;
 node_161        	270.5260    	0.005833    	                	;
 node_162        	257.8730    	0.006667    	                	;
 node_163        	258.2680    	0.593750    	                	;
 node_164        	285.6610    	0.017500    	                	;
 node_165        	283.2350    	0.000000    	                	;
 node_166        	273.0310    	0.000000    	                	;
 node_167        	263.9350    	0.000000    	                	;
 node_168        	261.4160    	0.000417    	                	;
 node_169        	269.2590    	0.000000    	                	;
 node_170        	289.1580    	0.001250    	                	;
 node_171        	259.6020    	0.003333    	                	;
 node_172        	285.5560    	0.006250    	                	;
 node_173        	304.4370    	0.000000    	                	;
 node_174        	284.2380    	0.003750    	                	;
 node_175        	258.0150    	0.009167    	                	;
 node_176        	265.7680    	0.000000    	                	;
 node_177        	262.2540    	0.002500    	                	;
 node_178        	258.3820    	0.002500    	                	;
 node_179        	254.4450    	0.000000    	                	;
 node_180        	269.4430    	0.000000    	                	;
 node_181        	266.1090    	0.000000    	                	;
 node_182        	254.1570    	0.000000    	                	;
 node_183        	275.6100    	0.000000    	                	;
 node_184        	266.8830    	0.000000    	                	;
 node_185        	240.9500    	0.000000    	                	;
 node_186        	276.3380    	0.000000    	                	;
 node_187        	254.4140    	0.000000    	                	;
 node_188        	245.1130    	0.000000    	                	;
 node_189        	273.7900    	0.000000    	                	;
 node_190        	263.6170    	0.000000    	                	;
 node_191        	262.6650    	0.000000    	                	;
 node_192        	272.1960    	0.000000    	                	;
 node_193        	255.6450    	0.000000    	                	;
 node_194        	283.9660    	0.000000    	                	;
 node_195        	279.7850    	0.000000    	                	;
 node_196        	279.0180    	0.000417    	                	;
 node_197        	278.2020    	0.000000    	                	;
 node_198        	279.7150    	0.000000    	                	;
 node_199        	280.5620    	0.000000    	                	;
 node_200        	279.4720    	0.000000    	                	;
 node_201        	286.8160    	0.007083    	                	;
 node_202        	283.5020    	0.005000    	                	;
 node_203        	257.6910    	0.000000    	                	;
 node_204        	254.5240    	0.010417    	                	;
 node_205        	274.2970    	0.007083    	                	;
 node_206        	278.4120    	0.010833    	                	;
 node_207        	271.0290    	0.014167    	                	;
 node_208        	275.5140    	0.003750    	                	;
 node_209        	254.5370    	0.010000    	                	;
 node_210        	256.2540    	0.016250    	                	;
 node_211        	281.1720    	0.008333    	                	;
 node_212        	266.5740    	0.000000    	                	;
 node_213        	275.5630    	0.000000    	                	;
 node_214        	277.3230    	0.001250    	                	;
 node_215        	251.3650    	0.006667    	                	;
 node_216        	247.2980    	0.000000    	                	;
 node_217        	279.0430    	0.000000    	                	;
 node_218        	278.8730    	0.012917    	                	;
 node_219        	276.6630    	0.000000    	                	;
 node_220        	280.1340    	0.008750    	                	;
 node_221        	281.2730    	0.002083    	                	;
 node_222        	282.6350    	0.011250    	                	;
 node_223        	282.8250    	0.005000    	                	;
 node_224        	281.0600    	0.005000    	                	;
 node_225        	277.9270    	0.002500    	                	;
 node_226        	274.2680    	0.000000    	                	;
 node_227        	272.7930    	0.000000    	                	;
 node_228        	272.4420    	0.002500    	                	;
 node_229        	272.8500    	0.000417    	                	;
 node_230        	272.3350    	0.003333    	                	;
 node_231        	272.4530    	0.000000    	                	;
 node_232        	272.6070    	0.003333    	                	;
 node_233        	301.9010    	0.002083    	                	;
 node_234        	302.5080    	0.000000    	                	;
 node_235        	295.6220    	0.000000    	                	;
 node_236        	271.0420    	0.003750    	                	;
 node_237        	269.9810    	0.000000    	                	;
 node_238        	266.6880    	0.004583    	                	;
 node_239        	267.8060    	0.018750    	                	;
 node_240        	261.2350    	0.008750    	                	;
 node_241        	271.3410    	0.009167    	                	;
 node_242        	260.0660    	0.008750    	                	;
 node_243        	262.6490    	0.025000    	                	;
 node_244        	268.2360    	0.002083    	                	;
 node_245        	269.9780    	0.004583    	                	;
 node_246        	280.3330    	0.004583    	                	;
 node_247        	276.6670    	0.006250    	                	;
 node_248        	270.3730    	0.000000    	                	;
 node_249        	258.3690    	0.019167    	                	;
 node_250        	268.1100    	0.007083    	                	;
 node_251        	249.1050    	0.000417    	                	;
 node_252        	272.7660    	0.005417    	                	;
 node_253        	259.5690    	0.004167    	                	;
 node_254        	245.8520    	0.000833    	                	;
 node_255        	261.0840    	0.001667    	                	;
 node_256        	271.3290    	0.002083    	                	;
 node_257        	278.9450    	0.000000    	                	;
 node_258        	277.6220    	0.021250    	                	;
 node_259        	262.6290    	0.005000    	                	;
 node_260        	269.9650    	0.036667    	                	;
 node_261        	300.1310    	0.000000    	                	;
 node_262        	286.7980    	0.000000    	                	;
 node_263        	272.9730    	0.006667    	                	;
 node_264        	274.2070    	0.007917    	                	;
 node_265        	302.8310    	0.007083    	                	;
 node_266        	277.8250    	0.019583    	                	;
 node_267        	259.5580    	0.000417    	                	;
 node_268        	267.1670    	0.002083    	                	;
 node_269        	275.8240    	0.001250    	                	;
 node_270        	289.6370    	0.006667    	                	;
 node_271        	288.9570    	0.007917    	                	;
 node_272        	302.3240    	0.001667    	                	;
 node_273        	302.8820    	0.000000    	                	;
 node_274        	267.4010    	0.005000    	                	;
 node_275        	267.0780    	0.002500    	                	;
 node_276        	262.5850    	0.005000    	                	;
 node_277        	258.1150    	0.006250    	                	;
 node_278        	270.2700    	0.000417    	                	;
 node_279        	272.2570    	0.031250    	                	;
 node_280        	260.6950    	0.005000    	                	;
 node_281        	251.1720    	0.002500    	                	;
 node_282        	252.8700    	0.004167    	                	;
 node_283        	260.2800    	0.000000    	                	;
 node_284        	263.7370    	0.000000    	                	;
 node_285        	265.3480    	0.000000    	                	;
 node_286        	265.3680    	0.003750    	                	;
 node_287        	265.4260    	0.006667    	                	;
 node_288        	266.1070    	0.002083    	                	;
 node_289        	266.1250    	0.005833    	                	;
 node_290        	262.4260    	0.005833    	                	;
 node_291        	262.7590    	0.000000    	                	;
 node_292        	264.2990    	0.000000    	                	;
 node_293        	263.3360    	0.000000    	                	;
 node_294        	263.7930    	0.005833    	                	;
 node_295        	263.8610    	0.003333    	                	;
 node_296        	264.0670    	0.001250    	                	;
 node_297        	263.9390    	0.006250    	                	;
 node_298        	264.1640    	0.006667    	                	;
 node_299        	264.6300    	0.007917    	                	;
 node_300        	264.8140    	0.005000    	                	;
 node_301        	264.8110    	0.000000    	                	;
 node_302        	272.4400    	0.004583    	                	;
 node_303        	272.8220    	0.000417    	                	;
 node_304        	273.1420    	0.000000    	                	;
 node_305        	265.0230    	0.002917    	                	;
 node_306        	270.4740    	0.005833    	                	;
 node_307        	271.5830    	0.002917    	                	;
 node_308        	273.3020    	0.007083    	                	;
 node_309        	270.5430    	0.003333    	                	;
 node_310        	274.8530    	0.003333    	                	;
 node_311        	274.4960    	0.005417    	                	;
 node_312        	274.1680    	0.008333    	                	;
 node_313        	273.8660    	0.001250    	                	;
 node_314        	274.1210    	0.005000    	                	;
 node_315        	273.2980    	0.003333    	                	;
 node_316        	270.6980    	0.004583    	                	;
 node_317        	258.6150    	0.002917    	                	;
 node_318        	255.4420    	0.009583    	                	;
 node_319        	257.8390    	0.005000    	                	;
 node_320        	257.8260    	0.001667    	                	;
 node_321        	258.4530    	0.003750    	                	;
 node_322        	260.4730    	0.003333    	                	;
 node_323        	260.2600    	0.002917    	                	;
 node_324        	259.4870    	0.000833    	                	;
 node_325        	259.1160    	0.005833    	                	;
 node_326        	258.3950    	0.007083    	                	;
 node_327        	255.6410    	0.000000    	                	;
 node_328        	255.6440    	0.002917    	                	;
 node_329        	255.1240    	0.001250    	                	;
 node_330        	257.3750    	0.010000    	                	;
 node_331        	257.1840    	0.003333    	                	;
 node_332        	278.4830    	0.002917    	                	;
 node_333        	277.0800    	0.005833    	                	;
 node_334        	262.5940    	0.003750    	                	;
 node_335        	259.1750    	0.002917    	                	;
 node_336        	259.0790    	0.002083    	                	;
 node_337        	262.1150    	0.000417    	                	;
 node_338        	262.8100    	0.004167    	                	;
 node_339        	252.6770    	0.007917    	                	;
 node_340        	251.1680    	0.001250    	                	;
 node_341        	253.4240    	0.004583    	                	;
 node_342        	253.3320    	0.005000    	                	;
 node_343        	251.1220    	0.006250    	                	;
 node_344        	249.9180    	0.002917    	                	;
 node_345        	249.4630    	0.000000    	                	;
 node_346        	250.4660    	0.003750    	                	;
 node_347        	253.3030    	0.002917    	                	;
 node_348        	247.4610    	0.009583    	                	;
 node_349        	247.3830    	0.006667    	                	;
 node_350        	254.2380    	0.005000    	                	;
 node_351        	245.6980    	0.002917    	                	;
 node_352        	252.7050    	0.003750    	                	;
 node_353        	266.3530    	0.005833    	                	;
 node_354        	260.0050    	0.004167    	                	;
 node_355        	259.3390    	0.000000    	                	;
 node_356        	253.4460    	0.011667    	                	;
 node_357        	253.2140    	0.012917    	                	;
 node_358        	256.7830    	0.010000    	                	;
 node_359        	257.1210    	0.006667    	                	;
 node_360        	261.5570    	0.004167    	                	;
 node_361        	274.2320    	0.005417    	                	;
 node_362        	252.3340    	0.004167    	                	;
 node_363        	254.7810    	0.002083    	                	;
 node_364        	260.0850    	0.001250    	                	;
 node_365        	260.2840    	0.006250    	                	;
 node_366        	257.2470    	0.007083    	                	;
 node_367        	252.3190    	0.001250    	                	;
 node_368        	252.6640    	0.000000    	                	;
 node_369        	254.6220    	0.000000    	                	;
 node_370        	264.3370    	0.671250    	                	;
 node_371        	268.1780    	0.000000    	                	;
 node_372        	269.5270    	0.000000    	                	;
 node_373        	293.4010    	0.001250    	                	;
 node_374        	297.9460    	0.000000    	                	;
 node_375        	264.0500    	0.000000    	                	;
 node_376        	242.3530    	0.000000    	                	;
 node_377        	303.2090    	0.000000    	                	;
 node_378        	248.0210    	0.000000    	                	;
 node_379        	259.6700    	0.000000    	                	;
 node_380        	252.8240    	0.000000    	                	;
 node_381        	263.7840    	0.000000    	                	;
 node_382        	278.6320    	0.000000    	                	;
 node_383        	276.0670    	0.000000    	                	;
 node_384        	279.3090    	0.000000    	                	;
 node_385        	269.2410    	0.000000    	                	;
 node_386        	269.2510    	0.001250    	                	;
 node_387        	282.3320    	0.005417    	                	;
 node_388        	274.9300    	0.003333    	                	;
 node_389        	273.5120    	0.001250    	                	;
 node_390        	270.4970    	0.005417    	                	;
 node_391        	271.1170    	0.011250    	                	;
 node_392        	257.9640    	0.003750    	                	;
 node_393        	288.7580    	0.000000    	                	;
 node_394        	278.1370    	0.006250    	                	;
 node_395        	240.5430    	0.022500    	                	;
 node_396        	301.9450    	0.002083    	                	;
 node_397        	284.7750    	0.003750    	                	;
 node_398        	283.3750    	0.001667    	                	;
 node_399        	278.6530    	0.004583    	                	;
 node_400        	274.0680    	0.002917    	                	;
 node_401        	279.5990    	0.000000    	                	;
 node_402        	277.0370    	0.000000    	                	;
 node_403        	275.8340    	0.000000    	                	;
 node_404        	272.2300    	0.000000    	                	;
 node_405        	285.7150    	0.010000    	                	;
 node_406        	301.7180    	0.001250    	                	;
 node_407        	255.2080    	0.007917    	                	;
 node_408        	258.2670    	0.000833    	                	;
 node_409        	272.5740    	0.002083    	                	;
 node_410        	272.6520    	0.000000    	                	;
 node_411        	295.0950    	0.000000    	                	;
 node_412        	293.9970    	0.000000    	                	;
 node_413        	293.2320    	0.003333    	                	;
 node_414        	293.2350    	0.003750    	                	;
 node_415        	296.0350    	0.002917    	                	;
 node_416        	280.7740    	0.006250    	                	;
 node_417        	278.5100    	0.002083    	                	;
 node_418        	260.8820    	0.005000    	                	;
 node_419        	261.5140    	0.008750    	                	;
 node_420        	266.1190    	0.004167    	                	;
 node_421        	267.8010    	0.000000    	                	;
 node_422        	271.4400    	0.000000    	                	;
 node_423        	275.0310    	0.012917    	                	;
 node_424        	268.8240    	0.000000    	                	;
 node_425        	272.3040    	0.012083    	                	;
 node_426        	277.5890    	0.001250    	                	;
 node_427        	278.2990    	0.000417    	                	;
 node_428        	269.3700    	0.004583    	                	;
 node_429        	296.7200    	0.003333    	                	;
 node_430        	302.6380    	0.000000    	                	;
 node_431        	302.0760    	0.001250    	                	;
 node_432        	278.6300    	0.001250    	                	;
 node_433        	289.0740    	0.000000    	                	;
 node_434        	288.4070    	0.007500    	                	;
 node_435        	265.2550    	0.005417    	                	;
 node_436        	263.2440    	0.000000    	                	;
 node_437        	265.6070    	0.007083    	                	;
 node_438        	265.8970    	0.007917    	                	;
 node_439        	268.1680    	0.000000    	                	;
 node_440        	252.6360    	0.000417    	                	;
 node_441        	257.0120    	0.023750    	                	;
 node_442        	245.4950    	0.340000    	                	;
 node_443        	252.0410    	0.002500    	                	;
 node_444        	261.0630    	0.003750    	                	;
 node_445        	261.5140    	0.003333    	                	;
 node_446        	263.9990    	0.000000    	                	;
 node_447        	265.7060    	0.000000    	                	;
 node_448        	265.6110    	0.007500    	                	;
 node_449        	261.6400    	0.004167    	                	;
 node_450        	263.4680    	0.000000    	                	;
 node_451        	263.5260    	0.006667    	                	;
 node_452        	264.6770    	0.000000    	                	;
 node_453        	263.6150    	0.002500    	                	;
 node_454        	264.0760    	0.001667    	                	;
 node_455        	264.5060    	0.000000    	                	;
 node_456        	264.7540    	0.001667    	                	;
 node_457        	254.8320    	0.000000    	                	;
 node_458        	276.2860    	0.003333    	                	;
 node_459        	277.1150    	0.002083    	                	;
 node_460        	277.5740    	0.001250    	                	;
 node_461        	272.8820    	0.007917    	                	;
 node_462        	266.1930    	0.004583    	                	;
 node_463        	268.0330    	0.004167    	                	;
 node_464        	269.6850    	0.003333    	                	;
 node_465        	270.6510    	0.005000    	                	;
 node_466        	275.5260    	0.004583    	                	;
 node_467        	275.4710    	0.012500    	                	;
 node_468        	274.5180    	0.004583    	                	;
 node_469        	274.9170    	0.004167    	                	;
 node_470        	274.3110    	0.008333    	                	;
 node_471        	273.4930    	0.005000    	                	;
 node_472        	272.9180    	0.003750    	                	;
 node_473        	271.3210    	0.006250    	                	;