[TITLE]
Converted from Epanet to Staci, case name: villasor.spr


[JUNCTIONS]
;ID              	Elev        	Demand      	Pattern         
 node_0          	204.8329    	0.000000    	                	;
 node_1          	219.3982    	0.000000    	                	;
 node_2          	218.8642    	0.000000    	                	;
 node_3          	214.6964    	0.013750    	                	;
 node_4          	218.2736    	0.004583    	                	;
 node_5          	217.6273    	0.015833    	                	;
 node_6          	217.8210    	0.000000    	                	;
 node_7          	206.1318    	0.061667    	                	;
 node_8          	216.5419    	0.068750    	                	;
 node_9          	210.9559    	0.000000    	                	;
 node_10         	202.5432    	0.056250    	                	;
 node_11         	217.0056    	0.004167    	                	;
 node_12         	213.6717    	0.011250    	                	;
 node_13         	213.7945    	0.012917    	                	;
 node_14         	217.0100    	0.004583    	                	;
 node_15         	216.8169    	0.000000    	                	;
 node_16         	217.6328    	0.014167    	                	;
 node_17         	205.2728    	0.000000    	                	;
 node_18         	221.4314    	0.002500    	                	;
 node_19         	225.2617    	0.007917    	                	;
 node_20         	211.3099    	0.001250    	                	;
 node_21         	209.5180    	0.019583    	                	;
 node_22         	212.6642    	0.022917    	                	;
 node_23         	214.8466    	0.004583    	                	;
 node_24         	216.4359    	0.003750    	                	;
 node_25         	214.9726    	0.001667    	                	;
 node_26         	218.2865    	0.018750    	                	;
 node_27         	208.4380    	0.002500    	                	;
 node_28         	199.0144    	0.028750    	                	;
 node_29         	216.8756    	0.001667    	                	;
 node_30         	214.2424    	0.039167    	                	;
 node_31         	223.6763    	0.000833    	                	;
 node_32         	215.7582    	0.017083    	                	;
 node_33         	215.3945    	0.000000    	                	;
 node_34         	218.6838    	0.004167    	                	;
 node_35         	219.8609    	0.005417    	                	;
 node_36         	211.5523    	0.008750    	                	;
 node_37         	211.1457    	0.002500    	                	;
 node_38         	229.0574    	0.007500    	                	;
 node_39         	216.9193    	0.011250    	                	;
 node_40         	225.4839    	0.002917    	                	;
 node_41         	225.5648    	0.000000    	                	;
 node_42         	228.5224    	0.008333    	                	;
 node_43         	216.3914    	0.000417    	                	;
 node_44         	216.5373    	0.002917    	                	;
 node_45         	216.5019    	0.002500    	                	;
 node_46         	217.1240    	0.000417    	                	;
 node_47         	214.1327    	0.007083    	                	;
 node_48         	211.9587    	0.000000    	                	;
 node_49         	211.9520    	0.002500    	                	;
 node_50         	215.1965    	0.000000    	                	;
 node_51         	215.5356    	0.014583    	                	;
 node_52         	217.6330    	0.071667    	                	;
 node_53         	216.3329    	0.019583    	                	;
 node_54         	215.9569    	0.009583    	                	;
 node_55         	221.0024    	0.027917    	                	;
 node_56         	211.6866    	0.002083    	                	;
 node_57         	211.6709    	0.002083    	                	;
 node_58         	215.5307    	0.009583    	                	;
 node_59         	219.8586    	0.004167    	                	;
 node_60         	214.0524    	0.052917    	                	;
 node_61         	214.8483    	0.015417    	                	;
 node_62         	215.4212    	0.003750    	                	;
 node_63         	216.4182    	0.003333    	                	;
 node_64         	210.3014    	0.002500    	                	;
 node_65         	210.2683    	0.000000    	                	;
 node_66         	217.1144    	0.002083    	                	;
 node_67         	216.6059    	0.002500    	                	;
 node_68         	211.3206    	0.007917    	                	;
 node_69         	216.9949    	0.000833    	                	;
 node_70         	202.1869    	0.002500    	                	;
 node_71         	205.1882    	0.018750    	                	;
 node_72         	206.1658    	0.025833    	                	;
 node_73         	204.6043    	0.005000    	                	;
 node_74         	220.0616    	0.004583    	                	;
 node_75         	229.3249    	0.012917    	                	;
 node_76         	229.8471    	0.020833    	                	;
 node_77         	210.0812    	0.000000    	                	;
 node_78         	199.2880    	0.000000    	                	;
 node_79         	216.8685    	0.000000    	                	;
 node_80         	215.4071    	0.000000    	                	;
 node_81         	201.8465    	0.000000    	                	;
 node_82         	216.5048    	0.000000    	                	;
 node_83         	212.8424    	0.001250    	                	;
 node_84         	217.2684    	0.001667    	                	;
 node_85         	214.9123    	0.038750    	                	;
 node_86         	215.3255    	0.000833    	                	;
 node_87         	203.4643    	0.006250    	                	;
 node_88         	215.6191    	0.005833    	                	;
 node_89         	222.6814    	0.000000    	                	;
 node_90         	214.2166    	0.003750    	                	;
 node_91         	214.1766    	0.027917    	                	;
 node_92         	214.3118    	0.000000    	                	;
 node_93         	225.6324    	0.004167    	                	;
 node_94         	218.1302    	0.000000    	                	;
 node_95         	222.2195    	0.005000    	                	;
 node_96         	215.5259    	0.001667    	                	;
 node_97         	213.4165    	0.000000    	                	;
 node_98         	211.6005    	0.007500    	                	;
 node_99         	191.8251    	0.000417    	                	;
 node_100        	215.5895    	0.000000    	                	;
 node_101        	190.4130    	0.000000    	                	;
 node_102        	214.5350    	0.035833    	                	;
 node_103        	216.0699    	0.000000    	                	;
 node_104        	178.5172    	0.004583    	                	;
 node_105        	201.4124    	0.007500    	                	;
 node_106        	200.5694    	0.004167    	                	;
 node_107        	209.6705    	0.006250    	                	;
 node_108        	216.3562    	0.183750    	                	;
 node_109        	201.0268    	0.008333    	                	;
 node_110        	205.7901    	0.017500    	                	;
 node_111        	220.6080    	0.017083    	                	;
 node_112        	220.1888    	0.012500    	                	;
 node_113        	205.8196    	0.005417    	                	;
 node_114        	203.7929    	0.012083    	                	;
 node_115        	205.5097    	0.054583    	                	;
 node_116        	218.7767    	0.014167    	                	;
 node_117        	220.2612    	0.002500    	                	;
 node_118        	220.6422    	0.007500    	                	;
 node_119        	210.7816    	0.005000    	                	;
 node_120        	210.2091    	0.010000    	                	;
 node_121        	207.6133    	0.003750    	                	;
 node_122        	192.9388    	0.000000    	                	;
 node_123        	210.6747    	0.010000    	                	;
 node_124        	203.7637    	0.009167    	                	;
 node_125        	203.7594    	0.002083    	                	;
 node_126        	225.2091    	0.008333    	                	;
 node_127        	215.7364    	0.027500    	                	;
 node_128        	203.4390    	0.004583    	                	;
 node_129        	211.6720    	0.005000    	                	;
 node_130        	211.1804    	0.000000    	                	;
 node_131        	216.6087    	0.072500    	                	;
 node_132        	207.0710    	0.011667    	                	;
 node_133        	206.1805    	0.000000    	                	;
 node_134        	205.6048    	0.007917    	                	;
 node_135        	215.3467    	0.003750    	                	;
 node_136        	215.5159    	0.005000    	                	;
 node_137        	215.3288    	0.005833    	                	;
 node_138        	203.7857    	0.005833    	                	;
 node_139        	206.9184    	0.011250    	                	;
 node_140        	221.9596    	0.004583    	                	;
 node_141        	223.7014    	0.000000    	                	;
 node_142        	224.1027    	0.002917    	                	;
 node_143        	225.6841    	0.003333    	                	;
 node_144        	226.0117    	0.000417    	                	;
 node_145        	214.4104    	0.048333    	                	;
 node_146        	215.4496    	0.004167    	                	;
 node_147        	214.7420    	0.000000    	                	;
 node_148        	214.5888    	0.004167    	                	;
 node_149        	214.5003    	0.020417    	                	;
 node_150        	199.6345    	0.007917    	                	;
 node_151        	204.4260    	0.005417    	                	;
 node_152        	212.5971    	0.017500    	                	;
 node_153        	212.4110    	0.015000    	                	;
 node_154        	203.9848    	0.020000    	                	;
 node_155        	215.3125    	0.008333    	                	;
 node_156        	212.4293    	0.010833    	                	;
 node_157        	216.5480    	0.001250    	                	;
 node_158        	217.3351    	0.019167    	                	;
 node_159        	215.6355    	0.006667    	                	;
 node_160        	204.8307    	0.000000    	                	;
 node_161        	205.7195    	0.010000    	                	;
 node_162        	216.2442    	0.002500    	                	;
 node_163        	211.1208    	0.034167    	                	;
 node_164        	214.6082    	0.032083    	                	;
 node_165        	206.5325    	0.032917    	                	;
 node_166        	245.7986    	0.006250    	                	;
 node_167        	212.8433    	0.035833    	                	;
 node_168        	216.1133    	0.010833    	                	;
 node_169        	216.7416    	0.007083    	                	;
 node_170        	218.0736    	0.000000    	                	;
 node_171        	210.5773    	0.005417    	                	;
 node_172        	178.2039    	0.003333    	                	;
 node_173        	208.2090    	0.009583    	                	;
 node_174        	237.7798    	0.000000    	                	;
 node_175        	212.3880    	0.004167    	                	;
 node_176        	212.3591    	0.002500    	                	;
 node_177        	209.3845    	0.011250    	                	;
 node_178        	210.1803    	0.025417    	                	;
 node_179        	209.4204    	0.003333    	                	;
 node_180        	217.8838    	0.019583    	                	;
 node_181        	208.6262    	0.082917    	                	;
 node_182        	204.6629    	0.002083    	                	;
 node_183        	221.1023    	0.007500    	                	;
 node_184        	213.7913    	0.002500    	                	;
 node_185        	216.3177    	0.016667    	                	;
 node_186        	230.2624    	0.000000    	                	;
 node_187        	243.7206    	0.000000    	                	;
 node_188        	218.7142    	0.042917    	                	;
 node_189        	213.0958    	0.004583    	                	;
 node_190        	208.2508    	0.002917    	                	;
 node_191        	208.4450    	0.000833    	                	;
 node_192        	209.1739    	0.000000    	                	;
 node_193        	215.6427    	0.000833    	                	;
 node_194        	205.1488    	0.004583    	                	;
 node_195        	198.9951    	0.009583    	                	;
 node_196        	201.4656    	0.004167    	                	;
 node_197        	196.8709    	0.003333    	                	;
 node_198        	213.5283    	0.020833    	                	;
 node_199        	215.7318    	0.013333    	                	;
 node_200        	219.8199    	0.002500    	                	;
 node_201        	217.6181    	0.000833    	                	;
 node_202        	202.9028    	0.008333    	                	;
 node_203        	214.6402    	0.005417    	                	;
 node_204        	197.0089    	0.008750    	                	;
 node_205        	197.8547    	0.003750    	                	;
 node_206        	222.3938    	0.002917    	                	;
 node_207        	210.5323    	0.000000    	                	;
 node_208        	221.2852    	0.001250    	                	;
 node_209        	218.4494    	0.000000    	                	;
 node_210        	215.1508    	0.019583    	                	;
 node_211        	214.0506    	0.021250    	                	;
 node_212        	216.5033    	0.002500    	                	;
 node_213        	216.5230    	0.011667    	                	;
 node_214        	217.0063    	0.011667    	                	;
 node_215        	214.3665    	0.003750    	                	;
 node_216        	213.6002    	0.029167    	                	;
 node_217        	223.4509    	0.006250    	                	;
 node_218        	219.8541    	0.003333    	                	;
 node_219        	218.2942    	0.005833    	                	;
 node_220        	205.2837    	0.007083    	                	;
 node_221        	219.3955    	0.011250    	                	;
 node_222        	209.9933    	0.003333    	                	;
 node_223        	194.6793    	0.000000    	                	;
 node_224        	194.1785    	0.004583    	                	;
 node_225        	225.2939    	0.000417    	                	;
 node_226        	217.0856    	0.002083    	                	;
 node_227        	204.1220    	0.000833    	                	;
 node_228        	223.7036    	0.013333    	                	;
 node_229        	201.3529    	0.000000    	                	;
 node_230        	222.9762    	0.000000    	                	;
 node_231        	219.1378    	0.002083    	                	;
 node_232        	214.8115    	0.000000    	                	;
 node_233        	207.8556    	0.011667    	                	;
 node_234        	213.5491    	0.003750    	                	;
 node_235        	214.1825    	0.008333    	                	;
 node_236        	221.3806    	0.001667    	                	;
 node_237        	221.4844    	0.002917    	                	;
 node_238        	220.8668    	0.005417    	                	;
 node_239        	216.9381    	0.004583    	                	;
 node_240        	213.2837    	0.003333    	                	;
 node_241        	214.1279    	0.000000    	                	;
 node_242        	202.0557    	0.026250    	                	;
 node_243        	217.6275    	0.001250    	                	;
 node_244        	208.3523    	0.000833    	                	;
 node_245        	223.0622    	0.008333    	                	;
 node_246        	224.3845    	0.004167    	                	;
 node_247        	205.3812    	0.000417    	                	;
 node_248        	205.6042    	0.004583    	                	;
 node_249        	220.8159    	0.001667    	                	;
 node_250        	215.0962    	0.014583    	                	;
 node_251        	215.1227    	0.004167    	                	;
 node_252        	202.0669    	0.007083    	                	;
 node_253        	229.2661    	0.007083    	                	;
 node_254        	212.6519    	0.045000    	                	;
 node_255        	213.3975    	0.000000    	                	;
 node_256        	211.2042    	0.010833    	                	;
 node_257        	208.0572    	0.005417    	                	;
 node_258        	237.9645    	0.000000    	                	;
 node_259        	238.3955    	0.000000    	                	;
 node_260        	211.6620    	0.033750    	                	;
 node_261        	211.8718    	0.013750    	                	;
 node_262        	211.3681    	0.026667    	                	;
 node_263        	213.6047    	0.005833    	                	;
 node_264        	204.4395    	0.007083    	                	;
 node_265        	217.4929    	0.000000    	                	;
 node_266        	223.3791    	0.000000    	                	;
 node_267        	199.8806    	0.000000    	                	;
 node_268        	178.9104    	0.000000    	                	;
 node_269        	207.7718    	0.016250    	                	;
 node_270        	213.3308    	0.010417    	                	;
 node_271        	219.6671    	0.002917    	                	;
 node_272        	217.5256    	0.045417    	                	;
 node_273        	226.7940    	0.001250    	                	;
 node_274        	222.4160    	0.003750    	                	;
 node_275        	215.0485    	0.035833    	                	;
 node_276        	213.9954    	0.018333    	                	;
 node_277        	215.4742    	0.006250    	                	;
 node_278        	207.7019    	0.007083    	                	;
 node_279        	208.8215    	0.011667    	                	;
 node_280        	208.5797    	0.002500    	                	;
 node_281        	214.3387    	0.002500    	                	;
 node_282        	212.6983    	0.057500    	                	;
 node_283        	224.3217    	0.001667    	                	;
 node_284        	220.6580    	0.004167    	                	;
 node_285        	229.1773    	0.012917    	                	;
 node_286        	223.1001    	0.003333    	                	;
 node_287        	207.6928    	0.009583    	                	;
 node_288        	216.7733    	0.003333    	                	;
 node_289        	210.6663    	0.005000    	                	;
 node_290        	198.9605    	0.004583    	                	;
 node_291        	210.4046    	0.006667    	                	;
 node_292        	217.2840    	0.001667    	                	;
 node_293        	214.5477    	0.000833    	                	;
 node_294        	214.3641    	0.007500    	                	;
 node_295        	220.0989    	0.000417    	                	;
 node_296        	207.7817    	0.004167    	                	;
 node_297        	211.6748    	0.007917    	                	;
 node_298        	215.1487    	0.000000    	                	;
 node_299        	199.7965    	0.000000    	                	;
 node_300        	217.7578    	0.000000    	                	;
 node_301        	214.7370    	0.017917    	                	;
 node_302        	212.1535    	0.005833    	                	;
 node_303        	178.4986    	0.003333    	                	;
 node_304        	214.4223    	0.013333    	                	;
 node_305        	214.3745    	0.002500    	                	;
 node_306        	213.7946    	0.004167    	                	;
 node_307        	222.2267    	0.000417    	                	;
 node_308        	208.9893    	0.000417    	                	;
 node_309        	216.5202    	0.024167    	                	;
 node_310        	222.3936    	0.005417    	                	;
 node_311        	222.9052    	0.008333    	                	;
 node_312        	215.4362    	0.005833    	                	;
 node_313        	215.3589    	0.027083    	                	;
 node_314        	205.9994    	0.005000    	                	;
 node_315        	201.7048    	0.010000    	                	;
 node_316        	205.7626    	0.004167    	                	;
 node_317        	222.8832    	0.001250    	                	;
 node_318        	216.4846    	0.000000    	                	;
 node_319        	213.9698    	0.028750    	                	;
 node_320        	203.6265    	0.008750    	                	;
 node_321        	217.2037    	0.005833    	                	;
 node_322        	194.1944    	0.011250    	                	;
 node_323        	216.9506    	0.025000    	                	;
 node_324        	214.1021    	0.017917    	                	;
 node_325        	225.1461    	0.003750    	                	;
 node_326        	201.2669    	0.006250    	                	;
 node_327        	205.1999    	0.003333    	                	;
 node_328        	197.5912    	0.000000    	                	;
 node_329        	217.4196    	0.011667    	                	;
 node_330        	219.2142    	0.006667    	                	;
 node_331        	219.3117    	0.000000    	                	;
 node_332        	216.1470    	0.012083    	                	;
 node_333        	209.8433    	0.131667    	                	;
 node_334        	225.7748    	0.006250    	                	;
 node_335        	212.7926    	0.002083    	                	;
 node_336        	217.0367    	0.002917    	                	;
 node_337        	219.0955    	0.005000    	                	;
 node_338        	213.0922    	0.009583    	                	;
 node_339        	212.0951    	0.000833    	                	;
 node_340        	216.9507    	0.022917    	                	;
 node_341        	213.6694    	0.025000    	                	;
 node_342        	216.1523    	0.000000    	                	;
 node_343        	205.2512    	0.004167    	                	;
 node_344        	212.1474    	0.002917    	                	;
 node_345        	225.1627    	0.000833    	                	;
 node_346        	188.8266    	0.129583    	                	;
 node_347        	197.3224    	0.000000    	                	;
 node_348        	212.9227    	0.002083    	                	;
 node_349        	209.0259    	0.000000    	                	;
 node_350        	217.4869    	0.002083    	                	;
 node_351        	209.3383    	0.003750    	                	;
 node_352        	211.3696    	0.006667    	                	;
 node_353        	209.8482    	0.000000    	                	;
 node_354        	222.9638    	0.007917    	                	;
 node_355        	220.9248    	0.000000    	                	;
 node_356        	200.9709    	0.017500    	                	;
 node_357        	230.7277    	0.000000    	                	;
 node_358        	201.3544    	0.014167    	                	;
 node_359        	214.7535    	0.005000    	                	;
 node_360        	219.0343    	0.020833    	                	;
 node_361        	210.5150    	0.007083    	                	;
 node_362        	215.6602    	0.001667    	                	;
 node_363        	213.8509    	0.000000    	                	;
 node_364        	215.0899    	0.002083    	                	;
 node_365        	206.6708    	0.001250    	                	;
 node_366        	214.8049    	0.000000    	                	;
 node_367        	207.1493    	0.002917    	                	;
 node_368        	206.6149    	0.000000    	                	;
 node_369        	222.3245    	0.002083    	                	;
 node_370        	225.9089    	0.000000    	                	;
 node_371        	216.5771    	0.003750    	                	;
 node_372        	215.7982    	0.004167    	                	;
 node_373        	215.0021    	0.020417    	                	;
 node_374        	211.3971    	0.005417    	                	;
 node_375        	215.0585    	0.028750    	                	;
 node_376        	191.8952    	0.003333    	                	;
 node_377        	217.3262    	0.026250    	                	;
 node_378        	211.6794    	0.005000    	                	;
 node_379        	212.6721    	0.006250    	                	;
 node_380        	211.3044    	0.022083    	                	;
 node_381        	225.5202    	0.003750    	                	;
 node_382        	214.3094    	0.038750    	                	;
 node_383        	212.4276    	0.061250    	                	;
 node_384        	221.0926    	0.000000    	                	;
 node_385        	221.7407    	0.006667    	                	;
 node_386        	218.5113    	0.002500    	                	;
 node_387        	216.7229    	0.001250    	                	;
 node_388        	202.9638    	0.000000    	                	;
 node_389        	235.8423    	0.003750    	                	;
 node_390        	218.0200    	0.002917    	                	;
 node_391        	221.0179    	0.000000    	                	;
 node_392        	211.3339    	0.005417    	                	;
 node_393        	214.5058    	0.005000    	                	;
 node_394        	196.9080    	0.004167    	                	;
 node_395        	217.0330    	0.012917    	                	;
 node_396        	215.2722    	0.115417    	                	;
 node_397        	203.9441    	0.000000    	                	;
 node_398        	215.9703    	0.002500    	                	;
 node_399        	214.3853    	0.006250    	                	;
 node_400        	204.9510    	0.012917    	                	;
 node_401        	220.0596    	0.005000    	                	;
 node_402        	209.7996    	0.002500    	                	;
 node_403        	219.4088    	0.000417    	                	;
 node_404        	210.8557    	0.004583    	                	;
 node_405        	213.4383    	0.003333    	                	;
 node_406        	211.6874    	0.000000    	                	;
 node_407        	215.9578    	0.003750    	                	;
 node_408        	211.1117    	0.005000    	                	;
 node_409        	213.6200    	0.025000    	                	;
 node_410        	214.7379    	0.010833    	                	;
 node_411        	212.9097    	0.001250    	                	;
 node_412        	223.5991    	0.000833    	                	;
 node_413        	217.4335    	0.008333    	                	;
 node_414        	214.8806    	0.004167    	                	;
 node_415        	209.7910    	0.000000    	                	;
 node_416        	215.7071    	0.003750    	                	;
 node_417        	229.3312    	0.000000    	                	;
 node_418        	211.0028    	0.001667    	                	;
 node_419        	211.2728    	0.000833    	                	;
 node_420        	217.7434    	0.007500    	                	;
 node_421        	226.5379    	0.007500    	                	;
 node_422        	207.5099    	0.005000    	                	;
 node_423        	217.3438    	0.009583    	                	;
 node_424        	191.0360    	0.000000    	                	;
 node_425        	222.5811    	0.005000    	                	;
 node_426        	211.9422    	0.004167    	                	;
 node_427        	213.4670    	0.000000    	                	;
 node_428        	208.2991    	0.000000    	                	;
 node_429        	212.6512    	0.000417    	                	;
 node_430        	208.1445    	0.027083    	                	;
 node_431        	214.4784    	0.015417    	                	;
 node_432        	225.2469    	0.008333    	                	;
 node_433        	204.6870    	0.004167    	                	;
 node_434        	207.7216    	0.002083    	                	;
 node_435        	214.9019    	0.001667    	                	;
 node_436        	214.3166    	0.002500    	                	;
 node_437        	217.9473    	0.005833    	                	;
 node_438        	223.5033    	0.003333    	                	;
 node_439        	222.5980    	0.010000    	                	;
 node_440        	213.8188    	0.002917    	                	;
 node_441        	201.3921    	0.007083    	                	;
 node_442        	217.8022    	0.026667    	                	;
 node_443        	215.1292    	6.872083    	                	;
 node_444        	211.4272    	0.000000    	                	;
 node_445        	204.5478    	0.004167    	                	;
 node_446        	212.8487    	0.001250    	                	;
 node_447        	212.9930    	0.037083    	                	;
 node_448        	219.8738    	0.004167    	                	;
 node_449        	216.6678    	0.002083    	                	;
 node_450        	211.4541    	0.000000    	                	;
 node_451        	222.6253    	0.006250    	                	;
 node_452        	209.4930    	0.007083    	                	;
 node_453        	216.2626    	0.002917    	                	;
 node_454        	206.4938    	0.018333    	                	;
 node_455        	219.3959    	0.001667    	                	;
 node_456        	213.3603    	0.000000    	                	;
 node_457        	215.4038    	0.010833    	                	;
 node_458        	214.7935    	0.007500    	                	;
 node_459        	213.8830    	0.004583    	                	;
 node_460        	181.1121    	0.000000    	                	;
 node_461        	198.3621    	0.009167    	                	;
 node_462        	215.2432    	0.015833    	                	;
 node_463        	216.7804    	0.022917    	                	;
 node_464        	215.9362    	0.004167    	                	;
 node_465        	220.9550    	0.002917    	                	;
 node_466        	218.3787    	0.004167    	                	;
 node_467        	216.5277    	0.000000    	                	;
 node_468        	214.7583    	0.000000    	                	;
 node_469        	217.1099    	0.002500    	                	;
 node_470        	210.4751    	0.003750    	                	;
 node_471        	216.7288    	0.015000    	                	;
 node_472        	212.5641    	0.002917    	                	;